Global frequency set at 1000000000000 ticks per second
gem5 Simulator System.  https://www.gem5.org
gem5 is copyrighted software; use the --copyright option for details.

gem5 version 25.0.0.1
gem5 compiled Oct 28 2025 20:39:06
gem5 started Nov 27 2025 12:17:42
gem5 executing on 30f263d25997, pid 48712
command line: ../gem5/build/RISCV/gem5.opt --outdir=output_dir/modified ../gem5/configs/deprecated/example/modify_se.py --cpu-type=O3CPU --num-cpus=1 --caches --l2cache --cmd=dump_dir/modified

**** REAL SIMULATION ****
3342 3345 2809 2932 3402 3348 3219 3145 3364 3243 3433 3315 2924 3336 2982 3226 2833 3418 2862 3124 3357 3451 3290 3264 3172 3496 3231 3470 3457 3291 3252 3124 3422 3155 3152 3099 3344 3411 3101 3332 3268 2911 3124 3281 3218 3277 3012 3249 3455 3078 2825 3227 3012 3271 3305 3344 3281 3419 3242 3235 3271 3231 2781 3127 3068 3193 3179 3133 3210 3100 3130 3217 3493 3675 3268 3499 3181 3124 3169 3199 3272 3254 3299 2951 3321 3344 3750 3513 3151 3232 3083 3589 3478 3354 3258 3034 3194 3142 3159 3055 3358 3148 3179 3121 2878 2880 2963 3217 3095 3043 3367 3346 3278 3231 3172 3195 3487 3277 3180 3180 3305 3501 2752 2939 3529 3341 3200 3029 
3468 3512 3082 3095 3429 3532 3300 3184 3309 3521 3501 3338 3109 3439 3119 3344 3121 3527 3055 3154 3633 3355 3428 3304 3344 3654 3179 3484 3457 3426 3342 3228 3425 3085 3339 3220 3409 3368 3306 3322 3337 2899 3300 3317 3324 3423 3091 3283 3593 3289 2909 3302 3245 3325 3379 3244 3389 3517 3411 3360 3211 3273 3007 3244 3119 3290 3354 3396 3392 3233 3233 3445 3683 3555 3296 3406 3376 3241 3501 3273 3308 3436 3132 3164 3544 3337 3760 3439 3226 3468 3211 3514 3476 3329 3397 3135 3279 3345 3406 3172 3436 3195 3271 3195 3036 3173 3225 3272 3204 3257 3524 3392 3429 3325 3376 3320 3776 3431 3261 3178 3337 3374 2833 3088 3443 3395 3485 3187 
3292 3217 2940 2854 3364 3210 3162 3142 3369 3342 3394 3023 2880 3300 2880 2974 2726 3086 2826 3002 3281 3097 3045 3170 3325 3474 2977 3214 3231 3165 3306 2875 3230 2955 3221 3188 3292 3295 2956 3017 3049 2889 3059 3173 3111 3204 2901 3263 3368 3169 2782 3082 3158 3091 3026 3135 3221 3181 3302 3065 2969 2985 2784 3042 2882 3135 3089 3200 3273 2996 3150 3072 3362 3359 3215 3145 3024 3012 3126 3093 3036 3197 3132 3070 3304 3271 3409 3298 3057 3145 3162 3481 3140 3162 3106 3026 3095 3194 3048 2863 3110 3079 2982 2988 2851 2809 2939 3304 3062 3015 3278 3249 3277 3018 3151 3009 3577 3236 2918 2987 3242 3277 2825 2808 3204 3269 3242 3035 
3127 3040 2621 2728 3350 3188 3054 3041 3089 3183 2942 2903 2920 3298 2794 2966 2809 3226 2773 2945 3212 3105 3165 2976 3301 3334 3121 3279 3256 3144 3187 2958 3334 2924 3168 2854 3053 3008 2993 3027 3178 2710 3111 3101 3186 3199 2826 3163 3284 3107 2729 3164 3050 3111 3114 3239 3242 3272 3231 2983 3040 2998 2876 3240 2826 2991 3112 3078 3298 2858 3144 3058 3271 3254 2996 3182 3004 3011 3221 3052 3201 3157 3110 3025 3208 3150 3444 3242 2958 3264 3065 3445 3218 3117 3075 2909 3078 3036 3163 2893 3210 2981 2963 2938 2881 2859 2933 3253 2979 3065 3216 3143 2998 3013 3200 3014 3225 3125 3019 3084 3144 3175 2689 2877 3216 3143 3069 2815 
3192 3136 3009 2821 3351 3349 3306 3234 3306 3308 3332 3107 2977 3302 2864 3081 3065 3221 2908 3066 3240 3363 3349 3143 3241 3405 3230 3397 3420 3204 3431 3023 3334 2993 3250 3195 3362 3327 3056 3255 3229 2890 3178 3378 3197 3383 2996 3235 3345 3143 2734 3126 3166 3013 3130 3128 3296 3407 3201 3142 3207 3136 2879 3183 3012 3250 3332 3201 3118 2975 3136 3334 3355 3322 3299 3359 3269 3099 3327 3071 3137 3399 3168 2995 3442 3343 3555 3354 2985 3231 3248 3509 3310 3237 3238 3068 2949 3205 3224 3105 3246 3081 3066 3222 2913 2977 2955 3240 3159 3183 3392 3258 3222 3179 3207 3168 3503 3302 3111 3100 3069 3367 2805 2858 3562 3279 3166 2883 
3195 3262 2884 2833 3258 3330 3101 3039 3274 3271 3177 3123 2964 3300 2867 3108 2759 3244 2777 2978 3379 3216 3175 3263 3107 3462 3187 3208 3216 3261 3301 3006 3198 2895 3129 3048 3281 3296 3109 3217 3184 2802 3107 3216 3127 3283 2886 3113 3111 3159 2770 3190 2983 3113 3090 3170 3260 3299 3317 3173 3213 3036 2840 3146 2954 3138 3018 3121 3153 2952 3124 3111 3360 3388 3091 3218 3027 3211 3345 3116 3127 3286 3141 3062 3327 3161 3593 3259 2924 3125 3117 3366 3191 3221 3227 3080 2973 3227 3063 2930 3313 3191 3117 2946 2979 2926 3084 3206 3086 3078 3364 3218 3265 3248 3057 3074 3490 3339 3183 2992 3196 3305 2907 2829 3345 3235 3178 2954 
3419 3408 2956 2998 3524 3503 3164 3214 3296 3400 3453 3191 3135 3532 2955 3281 2930 3340 3029 3164 3404 3445 3471 3210 3358 3507 3209 3378 3381 3333 3380 3124 3436 3023 3243 3209 3426 3287 3354 3344 3258 2891 3044 3285 3095 3508 2924 3282 3556 3228 2738 3167 3024 3345 3247 3157 3436 3348 3309 3238 3192 3222 2968 3234 3012 3061 3237 3255 3382 3109 3245 3363 3327 3481 3054 3297 3406 3086 3443 3124 3219 3355 3160 3254 3493 3318 3604 3437 3237 3118 3262 3406 3353 3343 3198 3038 3311 3216 3305 2969 3293 3048 3121 3319 2967 3056 3057 3220 3168 3089 3367 3459 3320 3270 3158 3074 3550 3264 3148 3033 3356 3367 2879 2907 3347 3314 3171 3017 
3104 3104 2780 2677 3317 3223 2956 2884 3238 3032 3225 3016 2841 3218 2726 2973 2769 3135 2616 2746 3310 3135 3073 3062 3139 3405 3022 3399 3218 3086 3132 2950 3264 2780 3185 2731 3145 3202 3038 3066 3005 2789 3074 3184 3154 3254 2965 3134 3248 3081 2771 3004 3020 3108 3023 3074 3037 3138 3128 3003 3053 3062 2879 2974 2979 3051 3071 2863 3139 2830 3173 2983 3298 3254 3091 3190 2902 2908 3095 3105 3084 3026 3124 2969 3149 3011 3420 3398 2923 3201 3090 3318 3083 3216 3167 2980 2946 2975 2992 2947 3208 3046 3028 2914 2785 2899 3156 3153 2975 3128 3259 3036 3102 3107 2956 3122 3459 2991 3107 3015 2974 3219 2709 2758 3306 3280 3021 2941 
3243 3240 2940 2767 3465 3387 3091 3013 3342 3180 3352 3129 2963 3369 2836 3129 2989 3352 2971 3087 3421 3351 3274 3232 3435 3455 3210 3373 3416 3463 3298 3044 3260 3007 3157 2999 3409 3190 3240 3342 3377 2932 3144 3270 3007 3366 3122 3293 3366 3008 2797 3003 3203 3162 3268 3246 3320 3362 3118 3209 3168 3174 2868 3135 2953 3172 3313 3051 3227 2878 3168 3319 3428 3370 3113 3323 3098 3119 3269 2946 3194 3171 3345 3116 3491 3257 3661 3353 3130 3228 2952 3337 3371 3210 3117 3068 3152 3220 3185 3036 3331 3001 3069 3095 2855 2861 3134 3284 3039 3074 3290 3252 3159 3278 3203 3098 3662 3138 3237 3097 3157 3410 2764 2963 3331 3234 3261 2905 
3125 3106 2657 2546 3239 3127 2897 2896 3112 3123 3184 2917 2722 3106 2790 3010 2833 3273 2798 2834 3117 3053 3096 2908 3127 3251 3134 3174 3230 3002 3001 2926 2974 2941 3099 2833 3001 2960 3018 3041 3016 2803 3090 2956 3049 3080 2820 2951 3179 2880 2694 3018 3031 2821 3007 2989 3126 3122 3008 2951 2863 3022 2769 2977 2829 3033 2997 2967 3089 2814 2930 3013 3213 3148 2974 3141 2809 2774 3036 2754 3001 3045 3003 2903 3230 3168 3375 3164 2832 3079 2804 3086 3240 3013 2836 2885 2956 2981 3107 2815 3085 2898 2807 2849 2688 2640 2975 3180 2978 2907 3125 2982 2954 2793 2987 3045 3317 3132 2990 2980 2961 3231 2560 2847 3156 3040 3029 2795 
3527 3177 3062 2859 3475 3431 3431 3203 3391 3358 3430 3213 2886 3411 3021 3354 3002 3245 2894 3206 3475 3226 3409 3364 3451 3602 3125 3509 3475 3431 3461 3198 3240 3082 3290 3428 3281 3436 3229 3238 3350 2914 3222 3316 3293 3346 3096 3235 3515 3342 2941 3141 3182 3314 3231 3215 3445 3448 3296 3283 3128 3396 3078 3255 3064 3326 3225 3277 3355 3107 3195 3257 3498 3422 3175 3267 3194 3148 3494 3255 3303 3313 3373 3161 3592 3406 3744 3401 3232 3355 3255 3453 3410 3207 3368 3058 3194 3424 3413 2861 3218 3215 3189 3216 2916 3023 3044 3337 3338 3133 3253 3286 3265 3239 3314 3253 3613 3377 3161 3129 3315 3270 2779 3028 3347 3259 3200 3217 
3145 3175 2698 2888 3228 3130 2898 2893 3233 3316 3106 3026 2814 3204 2663 2988 2787 3230 2889 3053 3275 3157 3092 2965 3346 3429 3129 3163 3175 3151 3141 3005 3097 2882 2991 3089 3019 3013 3055 3022 3018 2855 3083 3066 3094 3365 2882 3208 3256 3020 2647 3087 3043 3060 3112 3019 3222 3296 3159 2935 2982 3172 2690 3239 2873 3183 3013 2979 3245 2913 2983 3121 3352 3301 2984 3105 2872 2950 3288 2905 3036 3143 3166 3019 3299 3074 3340 3224 3004 3111 3085 3389 3014 3092 3085 2975 3004 3051 3087 2817 3035 3112 3010 2952 2726 2703 2994 3186 2950 2860 3236 3229 3107 3115 3035 2938 3464 3224 2971 3028 2997 3203 2865 2750 3104 3033 3180 2790 
3531 3474 3076 3087 3594 3628 3357 3262 3557 3503 3650 3285 3028 3657 2978 3420 3215 3455 2968 3355 3525 3567 3413 3544 3561 3754 3335 3678 3575 3529 3537 3244 3353 3382 3322 3364 3461 3575 3393 3450 3399 3083 3396 3494 3397 3476 3145 3522 3705 3271 2910 3271 3384 3267 3405 3424 3576 3508 3396 3439 3353 3519 3024 3378 3184 3426 3319 3451 3476 3098 3296 3462 3695 3654 3483 3576 3434 3229 3418 3372 3417 3522 3444 3298 3516 3486 3877 3614 3307 3392 3367 3699 3458 3355 3420 3163 3283 3458 3354 3191 3538 3218 3479 3320 3095 3185 3327 3524 3290 3198 3623 3547 3364 3271 3426 3436 3625 3412 3288 3403 3331 3545 2960 3153 3648 3446 3386 3230 
3374 3363 3099 2918 3509 3506 3299 3289 3443 3407 3583 3182 3163 3480 2918 3335 2971 3304 3057 3105 3338 3373 3260 3315 3385 3680 3327 3508 3431 3385 3429 3112 3411 3272 3336 3318 3458 3597 3306 3244 3247 3004 3472 3393 3409 3448 3085 3213 3468 3430 2835 3382 3346 3282 3276 3425 3467 3511 3536 3200 3365 3436 2923 3163 3083 3376 3250 3430 3388 3180 3453 3372 3581 3489 3294 3371 3204 3090 3387 3261 3359 3326 3338 3198 3464 3496 3815 3512 3172 3461 3309 3722 3246 3424 3450 3149 3251 3301 3301 2988 3431 3330 3371 3323 3045 3017 3084 3424 3273 3333 3572 3413 3356 3288 3341 3283 3764 3423 3204 3224 3336 3437 3054 3017 3611 3366 3320 3017 
3483 3286 3176 3096 3433 3485 3487 3380 3359 3429 3452 3153 3090 3405 3134 3333 3028 3489 2911 3202 3504 3264 3579 3358 3508 3572 3270 3533 3552 3388 3530 3219 3570 3080 3416 3286 3342 3559 3292 3329 3359 3010 3191 3450 3411 3472 3105 3287 3529 3400 3053 3230 3183 3356 3250 3451 3501 3450 3405 3231 3403 3393 3190 3407 3152 3243 3355 3404 3484 3157 3241 3421 3742 3503 3252 3445 3378 3187 3526 3183 3335 3361 3384 3246 3593 3448 3814 3383 3247 3602 3285 3743 3418 3396 3534 3208 3267 3267 3408 3112 3363 3234 3267 3203 2989 3028 3189 3479 3408 3261 3461 3541 3232 3385 3377 3501 3627 3540 3403 3237 3395 3585 2921 3176 3479 3316 3321 3346 
3551 3447 2962 3003 3720 3562 3488 3399 3681 3501 3669 3486 3091 3522 3147 3316 3120 3506 3056 3308 3424 3423 3389 3419 3538 3730 3381 3591 3496 3438 3583 3317 3531 3184 3481 3384 3548 3506 3316 3415 3462 3075 3335 3551 3372 3624 3222 3531 3645 3262 3062 3204 3289 3471 3499 3332 3537 3541 3391 3455 3411 3536 3161 3331 3134 3298 3436 3467 3315 3190 3331 3320 3534 3700 3347 3524 3363 3268 3333 3376 3376 3488 3416 3352 3637 3591 3865 3532 3333 3387 3480 3763 3484 3474 3526 3350 3295 3338 3468 3373 3518 3358 3277 3357 3083 3158 3403 3554 3371 3318 3640 3465 3412 3298 3412 3287 3851 3445 3202 3314 3388 3810 3048 3169 3523 3355 3400 3190 
3037 2981 2614 2703 3243 3169 3072 3010 3121 3119 3065 2899 2754 3178 2854 3070 2769 3270 2825 2844 3246 2966 3118 3044 3256 3285 3030 3237 3352 3102 3045 2965 3296 2784 3143 3017 3138 3116 2992 2963 3117 2794 3203 3088 3028 3116 2871 3131 3124 3035 2649 3018 3093 3059 2983 3250 3187 3128 3039 3003 2961 3105 2796 3110 2859 3143 3043 3024 3239 2924 3135 3196 3287 3258 2935 3170 2886 3039 3117 2904 3024 3002 3138 2860 3202 3219 3391 3056 2921 3085 2947 3356 3185 3281 3050 2955 2910 3052 2958 2728 3270 2856 2915 3024 2711 2608 2984 3117 3085 3027 3137 3151 2973 2941 3190 2947 3390 3216 3080 2991 3206 3162 2649 3010 3227 3018 3105 2919 
3064 3175 2716 2714 3253 3283 3012 2967 3262 2999 3278 2845 2750 3133 2915 2896 2705 3015 2810 2836 3193 3105 3153 3001 3082 3257 2888 3093 3074 3227 3165 2814 3149 2862 3024 3012 3117 3020 3015 3173 3008 2612 2841 3025 2951 3267 2718 3153 3226 2965 2773 2991 2778 3009 3188 3024 3052 3188 3128 2946 2898 2889 2671 2946 2687 3002 3071 2839 3033 2898 3087 2995 3220 3164 2993 3112 3052 2956 3109 2884 2976 3020 3050 2936 3154 3111 3407 3022 2934 2977 3014 3418 2991 2979 2997 2908 3011 3097 3100 2823 3184 2992 2933 2932 2749 2788 2930 3069 2740 2885 3315 3088 3110 3002 3140 2807 3367 3001 2767 2901 3064 3129 2616 2653 3127 3087 3052 2855 
2996 2845 2667 2573 3157 3006 2950 2793 3106 2986 3102 3008 2560 3132 2590 2887 2648 3060 2653 2818 3024 2965 2994 2752 3112 3164 2871 3120 3001 3131 2985 2762 3150 2659 2969 2808 3145 3024 2950 2917 2819 2422 2971 2991 2867 3250 2881 2915 2950 2827 2661 2922 2797 2866 3015 2909 2879 2940 2926 2923 2881 3016 2581 2877 2704 2844 2913 3016 3036 2712 3046 3057 3248 3117 2794 2880 2826 2940 3004 2690 2995 2818 3022 2694 3147 3113 3315 3155 2882 2936 2817 3168 2923 2992 2959 2954 2862 2986 3010 2832 2934 2881 2797 2949 2616 2629 2803 3176 2679 2693 2958 2945 3056 2959 2850 2870 3287 2894 2826 2795 2922 3057 2426 2625 3044 3024 2870 2584 
3155 3081 2853 2906 3171 3157 3037 3123 3029 3311 3144 2967 2820 3168 2844 2888 2751 3133 2728 3069 3034 3042 3191 2951 3102 3403 3014 3066 3136 3003 3181 2744 3119 2776 3095 3020 3161 3092 3121 3105 3028 2736 3028 3182 2878 3210 2749 3027 3223 3025 2550 2977 2969 3056 2839 2949 3190 3122 3195 2897 2915 3183 2760 3023 2836 2977 3026 3088 3194 2866 2989 3230 3214 3236 2936 3038 2966 2927 3205 3057 3003 3159 3013 2763 3266 3094 3394 3136 3013 3254 3081 3163 3128 3031 3102 2906 2897 2979 3039 2801 3264 2990 2812 2895 2629 2730 2860 3031 2924 2897 3175 3112 3102 3091 2969 3013 3336 3061 3014 2866 2932 3183 2792 2738 3163 2976 3144 2882 
2975 2882 2653 2743 3195 3249 2998 2952 3104 2988 3161 3008 2620 3061 2711 2965 2839 2985 2769 2870 3081 3072 2986 2978 3059 3105 2830 3182 3248 2998 3054 2856 3036 2780 3067 2889 3058 3092 3002 3008 2978 2778 2782 3166 2776 3191 2788 3014 3247 2790 2628 2825 2948 2874 2916 2956 3101 3041 3059 2991 3016 2994 2767 2936 2802 3030 2863 2873 3100 2705 3009 3012 3109 3199 2906 3113 2977 2825 3056 3074 2832 3096 3135 2797 3143 3084 3327 3182 2944 3049 2948 3089 3049 3083 2904 2784 2854 2948 2945 2773 3120 2849 2976 2871 2619 2680 2874 2870 2883 2883 3126 2997 2864 2997 2935 2958 3284 2905 2982 2879 2976 3070 2777 2714 3289 2984 2948 2920 
3202 3280 2936 2920 3363 3276 3228 3040 3317 3303 3312 2967 3029 3258 2752 3049 2760 3360 2942 3042 3469 3258 3216 3263 3274 3573 3123 3278 3348 3387 3339 3044 3214 3005 3161 3180 3242 3267 3080 3149 3252 2855 3326 3122 3236 3181 2964 3262 3425 3235 2689 3090 3177 3201 3166 3244 3372 3371 3308 3057 3104 3349 2817 3106 2909 3286 3198 3160 3141 3077 3241 3317 3441 3351 3260 3312 3305 3167 3328 3151 3207 3160 3208 3078 3378 3171 3501 3314 3130 3314 3124 3436 3240 3149 3226 3100 3112 3297 3087 3018 3310 3108 3205 3164 2770 2836 3046 3366 3139 3193 3338 3288 3301 3288 3242 3047 3517 3293 3190 3026 3263 3437 2692 2893 3387 3086 3106 3018 
3040 3063 2645 2732 3131 3162 3058 2800 3140 3107 3079 2985 2817 3061 2615 3021 2729 3003 2852 2976 3079 3019 3046 2919 2961 3162 2960 3248 3153 3038 3152 2849 3068 2799 2967 2837 3056 3137 2959 2995 3062 2692 2972 3153 2949 3295 2824 2848 3280 3001 2583 2833 2869 3013 3097 2941 3088 3066 3076 2959 2991 2886 2719 3000 2874 3001 3081 3015 2972 2718 2996 2894 3291 3245 2949 3182 2908 2970 3213 2852 2877 3078 3088 2836 3224 3159 3472 3057 2806 3111 2940 3225 2957 3038 3090 2929 2972 2924 3019 2853 3072 2926 2958 2901 2649 2687 2924 2897 2957 3034 3171 3065 2947 3063 2872 2895 3241 3085 2833 2918 2884 3124 2607 2729 3197 2917 3063 2578 
3085 2974 2642 2860 3256 3108 3053 2952 3108 3142 3161 2989 2803 3271 2826 3005 2843 3097 2674 2890 3104 3023 3008 2961 3265 3200 3067 3138 3314 2995 3180 2951 3161 2861 2974 2982 2987 3119 3003 3075 3125 2882 2985 3119 2987 3235 2893 3154 3084 2846 2616 2975 3046 3023 3110 3112 3231 3122 3091 3105 3008 3074 2774 2976 2850 3113 3012 2997 3128 2905 2982 3178 3305 3139 2954 3200 2903 2926 3159 2936 3012 3172 3035 2904 3147 3188 3419 3097 3016 3117 2943 3257 3003 3227 3062 3078 2953 2935 2974 2877 3169 2995 2918 2948 2706 2678 3080 3121 2972 3034 3232 3136 2961 2840 3102 3035 3438 3178 3021 3001 2975 3208 2669 2948 3212 3103 3091 2939 
3068 3025 2714 2819 3245 3161 3138 3068 3237 3002 3223 2935 2787 3207 2702 3050 2744 3234 2676 2836 3145 3011 3152 3008 3118 3314 2975 3121 3201 3121 3145 3001 3099 2772 3102 2950 3179 3107 2983 3026 3130 2642 3005 3186 2921 3167 2792 3033 3178 2954 2666 2927 2896 2950 2960 2994 3041 3111 3079 2986 2941 3011 2646 3038 2715 3040 3104 3015 3038 2866 2960 3048 3167 3306 3094 3082 3104 2931 3141 2916 3106 3072 2955 2962 3173 3235 3377 3001 2855 3019 3084 3345 3033 3028 2957 2972 2898 2977 3059 2867 3155 2932 2871 2987 2739 2816 2970 3081 2902 2962 3072 3204 3021 2977 3141 3070 3392 3089 2907 3095 3095 3127 2561 2794 3231 2984 3090 2845 
3354 3382 2926 2941 3464 3486 3150 3158 3419 3338 3389 3219 2988 3496 2885 3277 3030 3412 2981 3276 3475 3248 3235 3360 3316 3546 3242 3394 3366 3318 3457 3133 3327 3167 3273 3146 3342 3307 3314 3199 3331 3040 3445 3404 3271 3556 3030 3285 3352 3231 2839 3299 3318 3320 3387 3299 3300 3359 3467 3314 3242 3258 2865 3213 2948 3312 3014 3102 3277 2995 3159 3300 3485 3527 3249 3399 3210 3301 3472 3274 3203 3447 3403 3201 3345 3398 3745 3498 3233 3251 3202 3427 3343 3317 3361 3279 3198 3413 3225 3147 3576 3337 3159 3142 3030 2946 3207 3367 3296 3278 3458 3378 3383 3205 3200 3142 3572 3492 3237 3355 3339 3548 2880 3077 3368 3378 3320 3100 
3316 3258 2968 3029 3518 3279 3234 3177 3378 3384 3392 3142 2823 3370 2875 3147 2850 3191 2888 3076 3437 3253 3190 3193 3308 3624 3172 3285 3143 3469 3272 3057 3325 2871 3268 3163 3316 3324 3161 3092 3267 2816 3153 3386 3241 3441 3018 3271 3277 3218 2909 3171 3164 3206 3003 3256 3283 3213 3243 3074 3235 3168 3021 3153 2928 3203 3081 3127 3237 2976 3096 3182 3349 3498 3105 3179 3170 3226 3390 3138 3301 3283 3240 3177 3348 3102 3610 3268 3061 3140 3205 3455 3196 3252 3274 3183 3092 3231 3187 2871 3447 3185 2951 3037 3058 2887 3147 3325 3364 3113 3294 3485 3240 3216 3143 3186 3562 3294 3243 3285 3297 3406 2860 2948 3340 3257 3191 3181 
3197 3235 2871 2883 3438 3554 3185 3183 3315 3228 3303 3132 2963 3293 2912 3227 2988 3222 2914 3081 3480 3334 3393 3005 3319 3513 3234 3440 3408 3489 3256 3166 3299 2957 3245 3011 3331 3276 3239 3239 3247 2890 3136 3322 3177 3408 3119 3319 3544 3176 2796 3085 3158 3147 3153 3290 3140 3317 3131 3143 3201 3312 2994 3298 2951 3130 3140 3059 3176 3048 3315 3226 3331 3377 3089 3373 3047 3228 3321 3085 3141 3325 3298 3150 3405 3283 3650 3286 3075 3239 3183 3445 3332 3184 3252 3090 3253 3177 3170 3026 3376 3114 3182 3160 2765 2991 3095 3205 3241 3108 3315 3403 3046 3278 3215 3205 3631 3292 3162 3031 3166 3355 2860 2998 3481 3119 3225 3158 
3421 3286 3020 2961 3526 3484 3202 3101 3456 3377 3415 3182 3011 3480 2972 3179 2965 3398 3018 2994 3605 3213 3262 3343 3403 3621 3250 3392 3398 3392 3455 3137 3371 2920 3434 3245 3412 3235 3309 3406 3146 2913 3324 3361 3179 3408 3026 3360 3354 3260 2891 3130 3255 3292 3260 3201 3317 3309 3316 3246 3097 3330 3013 3146 3026 3189 3278 3134 3348 3083 3237 3315 3386 3499 3202 3248 3257 3126 3451 3182 3312 3175 3340 3223 3377 3428 3673 3552 3005 3241 3248 3581 3301 3387 3368 3102 3164 3417 3281 2968 3337 3191 3190 3115 2942 3018 3268 3311 3164 3254 3449 3316 3323 3197 3335 3165 3819 3405 3273 3089 3375 3467 2804 3063 3440 3395 3340 3254 
3057 3132 2784 2821 3221 3198 3056 2953 3094 3111 3124 2975 2680 3030 2815 2866 2713 3130 2719 3076 3223 3107 3240 2933 3298 3254 2949 3181 3269 3156 3133 2997 3167 2801 3083 3077 2943 3263 2954 3086 3119 2677 2971 3062 2830 3302 2834 3104 3345 2894 2570 2935 2882 3151 3080 3089 2991 3189 3089 2928 2901 3037 2777 3019 2746 3032 2868 2949 3125 2901 2995 3068 3338 3140 2888 3295 2927 2976 3124 2870 2892 2960 3043 2865 3214 3206 3490 3144 2969 3111 2811 3188 3189 3142 2962 2870 3114 2937 3130 2822 3142 2989 2992 2971 2656 2693 2902 2970 2884 2812 2921 3175 2943 3038 2934 2805 3494 3010 2794 2893 3056 3115 2696 2792 3197 3123 3113 2941 
3280 3197 2772 2817 3268 3250 3082 3034 3421 3166 3308 3179 2873 3358 2756 3001 2845 3170 2798 2976 3380 3176 3229 3120 3218 3523 3183 3262 3187 3302 3220 2972 3087 2985 3124 3045 3278 3287 3199 3243 3153 2790 3006 3174 3032 3206 2926 3209 3436 2990 2878 3024 3024 3232 3113 3162 3162 3320 3025 3185 3141 3160 2947 3042 2975 2996 3053 3004 3277 3030 3217 3184 3380 3359 3128 3227 3102 3004 3379 3172 3105 3167 3338 3114 3289 3348 3750 3258 3051 3176 3169 3525 3142 3107 3207 3085 2985 3106 3159 2912 3295 3029 3062 2925 2734 2864 3083 3174 3106 3156 3254 3268 3156 3137 3152 3226 3627 3174 3131 3196 3150 3251 2666 2792 3324 3114 3212 3002 
3146 3189 2735 2754 3325 3272 3189 3028 3185 3171 3224 3007 2950 3372 2826 3064 2790 3125 2711 3011 3359 3147 3221 3036 3312 3375 3228 3375 3438 3231 3198 2924 3073 3004 2929 2900 3171 3107 3208 3208 3258 3020 3141 3174 3105 3300 2863 3075 3377 3108 2699 3056 3007 3105 3175 3150 3157 3237 3188 3135 3079 3130 2841 3152 2917 3187 3166 3088 3062 2834 3123 3095 3328 3358 3066 3315 2894 3015 3201 2995 3135 3237 3193 3004 3263 3289 3471 3268 3051 3157 3246 3296 3150 3123 2973 2906 3201 3118 3007 2808 3280 2953 3074 2993 2748 2924 3157 3340 3022 3003 3256 3180 3081 2902 3129 3107 3377 3235 3121 3057 2947 3310 2860 2799 3300 3288 3152 2950 
3338 3372 2989 2922 3603 3471 3228 3148 3473 3206 3365 3110 2933 3456 2986 3269 2947 3421 2877 3062 3359 3324 3344 3357 3373 3571 3316 3488 3394 3305 3385 3107 3358 3073 3275 3116 3291 3345 3348 3453 3329 3105 3158 3348 3198 3390 2968 3300 3472 3229 3040 3206 3239 3314 3420 3277 3509 3501 3309 3324 3092 3365 3071 3211 3047 3265 3260 3337 3382 3116 3421 3290 3517 3410 3162 3435 3238 3092 3337 3271 3290 3394 3379 3268 3426 3598 3744 3415 3035 3495 3374 3572 3397 3328 3371 3324 3250 3101 3197 3102 3555 3164 3168 3113 2974 2977 3309 3387 3175 3241 3475 3388 3244 3250 3144 3236 3741 3289 3312 3125 3356 3442 2825 3006 3522 3352 3374 3077 
3251 3151 2937 2828 3403 3366 3146 3212 3257 3306 3242 3017 3174 3343 2842 3077 3052 3199 2688 3090 3407 3313 3317 3220 3417 3308 2996 3323 3328 3284 3368 3094 3234 2970 3192 3087 3129 3142 3106 3138 3109 2849 3123 3329 3220 3367 2870 3222 3424 3118 2739 3043 3100 3140 3244 3176 3233 3308 3127 3075 3157 3330 2783 3277 2880 3093 3225 3049 3491 3024 3140 3231 3448 3357 3107 3281 3246 2996 3201 3252 3167 3274 3115 3097 3346 3163 3623 3373 3037 3281 3170 3503 3219 3222 3228 2974 3127 3140 3206 3062 3116 3046 3147 3176 2788 2948 3130 3231 3193 3144 3281 3299 3073 3211 3208 3133 3494 3224 3020 3185 3077 3355 2674 2942 3336 3068 3218 3060 
3250 3346 3060 3050 3510 3389 3337 3244 3399 3411 3457 3297 3024 3410 3030 3275 3000 3453 2963 3150 3459 3412 3472 3308 3344 3727 3285 3463 3518 3449 3480 3182 3450 3014 3245 3091 3356 3421 3238 3371 3405 2967 3133 3392 3290 3367 3109 3271 3517 3246 2962 3284 3185 3303 3335 3372 3465 3444 3246 3145 3383 3387 2860 3356 3056 3186 3292 3462 3204 3225 3293 3366 3573 3456 3137 3426 3361 3198 3365 3216 3361 3335 3290 3161 3431 3393 3801 3453 3204 3444 3294 3451 3419 3391 3328 3254 3298 3255 3248 3119 3554 3184 3151 3289 2835 3042 3214 3464 3179 3114 3437 3438 3422 3355 3277 3249 3612 3265 3231 3227 3276 3512 2791 3032 3531 3281 3315 3072 
3179 3088 2798 2747 3366 3346 3148 3050 3300 3315 3282 3053 3039 3300 2893 3199 3034 3263 2835 3064 3330 3290 3208 3152 3275 3344 2948 3236 3289 3296 3278 3015 3363 3017 3112 3090 3210 3218 3221 3248 3324 2927 3231 3166 3112 3488 2963 3325 3458 3173 2785 3067 3135 3101 3145 3123 3356 3239 3246 3071 3216 3161 2898 3259 2951 3242 3057 3037 3254 2910 3167 3198 3265 3388 2999 3291 3172 3081 3280 2989 3192 3267 3089 3020 3313 3101 3520 3393 3101 3133 3006 3372 3144 3155 3305 2975 3280 3204 3204 2951 3329 2997 3155 3127 2836 2899 3157 3338 3120 2931 3303 3342 3173 3113 3181 3102 3441 3159 3068 3138 3284 3227 2877 2901 3279 3274 3162 2923 
3563 3408 3031 2990 3438 3511 3380 3131 3458 3391 3410 3155 2966 3564 2904 3191 3025 3349 2936 3220 3522 3241 3315 3192 3394 3652 3091 3518 3363 3418 3578 3071 3370 3051 3313 3293 3424 3398 3404 3358 3328 3013 3296 3344 3287 3495 3038 3398 3574 3391 2918 3213 3209 3378 3325 3189 3475 3415 3315 3201 3145 3337 3201 3163 3043 3296 3246 3190 3416 3167 3419 3374 3555 3478 3233 3449 3275 3235 3460 3206 3308 3447 3362 3183 3432 3494 3700 3328 3194 3320 3304 3699 3260 3171 3397 3134 3283 3276 3293 2984 3372 3184 3162 3174 3026 3041 3139 3400 3404 3165 3636 3517 3461 3319 3266 3245 3706 3475 3203 3203 3386 3323 2814 3039 3271 3370 3305 3094 
3452 3477 2973 2881 3459 3334 3241 3212 3458 3407 3557 3265 3000 3410 2991 3312 2978 3373 3049 3076 3587 3286 3400 3347 3430 3579 3206 3507 3544 3276 3399 3153 3490 3174 3372 3264 3466 3486 3227 3374 3382 3041 3345 3399 3444 3460 3005 3316 3494 3391 2932 3331 3398 3263 3284 3319 3359 3410 3433 3058 3141 3234 3050 3386 3191 3338 3182 3197 3426 3174 3289 3233 3432 3623 3249 3453 3224 3265 3405 3130 3561 3434 3398 3199 3484 3363 3690 3438 3191 3312 3397 3715 3427 3300 3406 3188 3302 3300 3353 3040 3424 3220 3145 3169 2995 2988 3170 3510 3462 3313 3391 3393 3382 3250 3248 3241 3732 3480 3284 3411 3321 3387 2933 3045 3457 3310 3334 3091 
2844 2823 2590 2672 2968 2915 2787 2763 2982 2850 3080 2843 2600 2942 2602 2773 2492 2836 2638 2726 3019 3002 2923 2605 2887 3099 2882 2910 3074 3005 3033 2704 2916 2699 2914 2827 2967 2858 2824 2887 2851 2576 2768 2854 2885 3043 2681 2853 2958 2921 2371 2855 2738 2891 2874 2808 2868 2945 2993 2723 2826 2865 2527 2912 2463 2861 2767 2748 2846 2783 2840 2892 3035 3043 2801 2975 2756 2824 3016 2690 2762 2955 2821 2816 2956 2879 3124 2982 2804 2791 2887 3077 2956 2804 2901 2633 2926 2855 2883 2591 2872 2804 2845 2751 2595 2587 2709 2966 2828 2757 2918 2881 2904 2746 2889 2686 3304 2976 2762 2754 2886 2928 2611 2448 3003 3017 2743 2694 
3251 3243 2835 2712 3442 3334 3170 3039 3238 3267 3246 2967 2930 3321 2841 3142 2898 3125 2663 2948 3208 3185 3318 3170 3296 3358 3070 3323 3398 3153 3370 3158 3445 2978 3195 3194 3185 3288 3099 3054 3076 2914 3202 3158 2993 3461 3021 3158 3429 3017 2822 3228 3113 3080 3219 3146 3311 3342 3219 3093 3036 3221 2725 3125 2967 3132 3191 3088 3266 2967 3240 3133 3371 3383 3274 3328 3059 2930 3275 3021 3070 3202 3326 3011 3338 3360 3539 3288 3049 3337 3129 3436 3177 3249 3181 3062 3089 3063 3070 3087 3129 3163 3083 3147 2834 2817 2915 3207 3008 3195 3280 3241 3149 3173 3248 3080 3562 3001 3067 2966 3082 3199 2678 2806 3437 3302 3152 2928 
3371 3388 3044 3120 3379 3474 3315 3162 3280 3390 3387 3277 3104 3470 3042 3184 2986 3296 2931 3075 3456 3373 3289 3260 3382 3575 3203 3475 3437 3308 3354 3076 3318 3137 3371 3224 3377 3352 3327 3180 3493 2990 3038 3306 3132 3454 2911 3268 3505 3176 2907 3137 3163 3360 3250 3188 3417 3347 3339 3284 3165 3207 2983 3172 2970 3325 3224 3270 3272 3145 3236 3346 3524 3536 3131 3394 3073 3311 3315 3109 3345 3327 3302 3145 3366 3368 3725 3319 3282 3239 3245 3623 3315 3311 3233 3115 3065 3038 3255 2852 3308 3107 3236 3177 2832 3048 3109 3284 3201 3113 3481 3331 3267 3190 3294 3219 3686 3303 3136 3110 3305 3500 2985 2885 3304 3202 3359 3245 
3182 3188 2735 2753 3335 3324 3117 3041 3348 3279 3277 2994 2826 3252 2765 3145 2868 3175 2755 3064 3189 3097 3223 3205 3276 3456 3115 3279 3192 3185 3316 2971 3231 2857 2981 3087 3205 3221 2995 3129 3143 2813 3067 3208 3005 3319 2902 3150 3250 3164 2762 3206 3060 3141 3093 3076 3228 3320 3210 3091 2997 3110 2757 3099 2850 3173 3131 3131 3034 2979 2982 3161 3341 3368 2969 3173 3014 2972 3361 3010 3187 3148 3109 3006 3246 3166 3646 3250 3006 3056 3109 3227 3252 3064 3193 3005 3068 3307 3168 2792 3314 3162 2991 3011 2848 2820 2961 3199 3190 3028 3231 3258 3127 3039 3015 3176 3422 3124 2916 3240 3088 3263 2843 2863 3376 3249 3120 2918 
3346 3354 3002 2831 3388 3431 3284 3185 3331 3317 3365 3113 2931 3469 2847 3174 2869 3294 2888 3157 3315 3345 3419 3180 3303 3469 3188 3478 3393 3283 3382 3170 3315 2907 3205 3213 3270 3393 3216 3258 3173 2958 3201 3286 3241 3369 3096 3190 3428 3232 2846 3225 2939 3206 3144 3238 3210 3265 3190 3147 3187 3251 2847 3215 2995 3220 3115 3266 3136 3033 3171 3215 3501 3403 3143 3277 2993 3135 3324 3040 3116 3268 3313 3047 3450 3350 3568 3351 3107 3231 3119 3283 3211 3236 3226 3025 3264 3334 3196 2970 3260 3143 3140 3112 2812 2875 3004 3248 3054 3095 3340 3338 3277 3220 3121 3201 3595 3380 3087 3051 3228 3226 2827 2804 3373 3335 3238 2931 
3478 3413 2972 3027 3643 3484 3432 3267 3455 3319 3283 3333 2945 3660 3029 3457 3121 3463 2817 3272 3525 3372 3329 3207 3427 3723 3323 3603 3419 3415 3529 3223 3444 3081 3185 3111 3622 3432 3393 3312 3518 2970 3419 3351 3189 3542 3160 3422 3444 3255 2993 3227 3310 3380 3329 3295 3323 3433 3411 3267 3258 3349 3130 3341 3068 3326 3245 3215 3330 3031 3366 3428 3487 3626 3160 3441 3187 3329 3477 3355 3466 3522 3514 3141 3318 3587 3789 3516 3320 3399 3359 3632 3427 3390 3410 3140 3309 3340 3379 3049 3429 3275 3280 3149 2961 3157 3286 3491 3345 3191 3462 3490 3347 3235 3314 3383 3614 3359 3387 3311 3425 3431 2909 3071 3552 3353 3337 3123 
3077 2994 2667 2642 3218 3336 3012 2875 3058 3050 3116 2940 2629 2958 2726 2910 2763 3104 2825 2812 3080 2908 3168 2956 3083 3120 2965 3115 3043 3087 3114 2832 3137 2756 3004 2907 3026 3096 2847 2980 2903 2698 2815 3067 2894 3328 2776 2869 3158 2819 2601 3029 2859 3092 2991 2913 3114 3061 3094 2923 2864 3001 2754 2937 2700 2882 2938 2950 3008 2769 2961 2847 3006 3321 2803 3166 2922 2796 3157 2930 2914 3019 2998 2977 3214 3031 3329 3020 2894 3016 2803 3301 3048 3127 3059 2836 3020 2997 3050 2754 3078 2992 2771 2900 2809 2771 2892 3013 2906 2873 3140 3026 2966 2906 3040 2903 3237 3232 2924 2825 3053 3252 2614 2722 3157 2975 3086 2762 
3344 3106 2843 2818 3273 3344 3297 3225 3249 3206 3249 3039 2870 3138 2738 3096 2978 3327 2848 3052 3348 3130 3265 3029 3264 3344 3220 3357 3285 3186 3268 3037 3292 2913 3192 3103 3093 3188 3191 2978 3402 2923 3004 3145 3128 3288 2814 3097 3353 2985 2833 3056 3036 3095 3113 3081 3216 3319 3337 3092 2944 3177 2887 3036 2894 3192 3079 3077 3133 2894 3185 3224 3247 3280 2971 3327 3158 2778 3274 3077 2983 3223 3201 3042 3255 3240 3599 3154 3129 3245 3117 3479 3073 3307 3210 3046 3123 2990 3252 2934 3236 3114 3027 3117 2757 2907 3069 3329 3188 3048 3307 3392 3177 3091 3273 3157 3560 3220 3196 3093 3191 3387 2947 2866 3245 2988 3318 2962 
3423 3374 3077 3044 3553 3527 3534 3293 3490 3395 3424 3221 3043 3576 3024 3445 3022 3575 2977 3281 3668 3433 3430 3299 3541 3599 3295 3617 3514 3548 3644 3271 3595 3246 3418 3247 3295 3412 3283 3434 3522 3102 3398 3325 3327 3645 3152 3350 3595 3361 2966 3385 3376 3458 3407 3318 3534 3613 3503 3266 3280 3470 3075 3208 3159 3312 3436 3422 3500 3173 3305 3585 3637 3553 3243 3459 3354 3214 3457 3196 3418 3322 3337 3237 3483 3513 3810 3402 3332 3522 3441 3719 3419 3451 3523 3221 3444 3244 3488 3129 3464 3181 3326 3234 2989 3057 3246 3414 3311 3277 3472 3542 3409 3310 3512 3385 3777 3300 3373 3234 3440 3684 2965 3274 3520 3390 3428 3038 
3321 3357 3038 2931 3402 3344 3262 3150 3249 3377 3329 3095 2963 3346 2814 3043 2817 3262 2979 3159 3520 3316 3289 3166 3432 3476 3152 3240 3403 3200 3200 3100 3300 2925 3277 3002 3243 3242 3040 3142 3190 2908 3123 3173 3244 3194 2914 3229 3395 3077 2884 3135 3157 3141 3098 3216 3195 3315 3366 3182 2990 3148 2870 3199 3001 3067 3274 3190 3176 3168 3089 3133 3428 3431 3242 3282 3182 3148 3281 3158 3240 3161 3028 3078 3426 3273 3623 3386 3045 3352 3205 3468 3376 3326 3083 2998 3162 3158 3240 2946 3209 3163 3001 3114 2848 3007 2935 3366 3212 3041 3244 3324 3229 3167 3271 3230 3601 3297 3128 3066 3220 3307 2795 2863 3404 3153 3289 3122 
3396 3314 3119 2870 3554 3494 3361 3393 3366 3385 3445 3177 3085 3463 2993 3449 3163 3503 2891 3264 3468 3547 3441 3325 3571 3649 3307 3458 3508 3465 3583 3192 3438 3229 3341 3385 3388 3506 3353 3260 3493 3103 3368 3441 3437 3517 3143 3501 3566 3204 2913 3405 3274 3175 3335 3334 3554 3512 3444 3279 3299 3422 3053 3346 3176 3564 3315 3251 3543 3053 3277 3414 3564 3497 3380 3471 3220 3127 3517 3164 3447 3376 3323 3054 3486 3354 3762 3605 3311 3401 3287 3685 3354 3445 3481 3102 3130 3388 3436 3102 3351 3350 3167 3254 3026 2904 3105 3452 3286 3333 3317 3491 3351 3325 3525 3303 3630 3348 3302 3286 3374 3394 2875 3112 3617 3431 3410 3178 
3509 3290 2961 2932 3415 3350 3263 3281 3369 3291 3490 3092 2905 3359 3023 3163 2991 3298 2784 3174 3251 3302 3473 3164 3384 3413 3146 3491 3466 3346 3415 3122 3463 2994 3337 3137 3342 3373 3101 3372 3358 2987 3210 3408 3214 3498 3113 3342 3449 3245 2895 3159 3131 3223 3316 3283 3426 3452 3276 3132 3123 3339 2953 3235 3149 3348 3227 3157 3401 3077 3206 3334 3443 3452 3293 3437 3219 3151 3373 3153 3312 3344 3240 3191 3431 3303 3582 3436 3201 3402 3305 3494 3510 3201 3351 3224 3215 3282 3224 3154 3393 3216 3164 3036 2902 2932 3063 3316 3122 3271 3450 3355 3120 3165 3291 3253 3515 3185 3157 3220 3197 3365 2806 3034 3412 3437 3142 3138 
3554 3464 3033 3011 3662 3593 3434 3329 3549 3495 3600 3389 3167 3558 3055 3420 3088 3506 3090 3160 3539 3476 3520 3504 3543 3713 3414 3567 3534 3570 3606 3266 3439 3212 3499 3389 3427 3672 3344 3527 3422 3112 3479 3480 3401 3619 3239 3450 3705 3478 2903 3336 3290 3550 3439 3460 3705 3499 3465 3382 3447 3419 3138 3306 3077 3478 3431 3386 3321 3257 3387 3502 3674 3676 3315 3605 3274 3403 3566 3271 3501 3417 3336 3290 3694 3534 3987 3623 3283 3367 3390 3738 3525 3443 3492 3311 3319 3380 3529 3136 3531 3392 3307 3383 2984 3071 3336 3603 3325 3285 3515 3493 3417 3377 3414 3353 3784 3453 3238 3294 3398 3553 2999 3174 3633 3556 3361 3213 
3066 3201 2870 2599 3029 3323 2991 3200 3125 3208 3182 2925 2852 3230 2689 3105 2888 3097 2724 3043 3132 3146 3147 3030 3066 3347 2992 3271 3201 3200 3210 2955 3125 2825 2990 2979 3170 3106 3071 3032 3110 2782 2955 3158 2993 3241 2750 3110 3341 3053 2673 3090 2972 3104 3028 3076 3122 3093 3248 2951 3087 3144 2798 3109 2868 3127 2998 2974 3081 2784 3054 3108 3100 3286 2916 3117 2937 3026 3167 2932 3186 3223 3090 2922 3174 3171 3580 3190 3075 3146 3099 3337 3151 3083 3246 2719 3052 3228 3042 2822 3275 3018 2989 3026 2757 2890 2848 3108 3114 2979 3246 3225 3182 2919 3179 3046 3415 3025 2891 3044 3078 3132 2815 2754 3229 2975 3217 2832 
3153 3239 2680 2774 3268 3068 3042 2900 3209 3091 3384 2971 2926 3334 2765 3188 2888 3041 2755 2976 3175 3128 3243 3157 3252 3237 2983 3309 3344 3197 3197 2949 3273 2851 3133 3040 3342 3266 2999 3154 3100 2881 2990 3064 3003 3197 2876 3132 3345 3111 2752 3047 2941 3049 3115 3091 3138 3131 3114 2954 3064 3193 2786 3010 2942 3082 3039 3107 3219 3048 3148 3107 3154 3243 3144 3251 3116 2900 3158 2985 3144 3143 3081 3032 3217 3113 3407 3256 3080 3099 3151 3242 3133 2874 3116 3105 2987 3145 3016 2867 3151 2951 3162 3029 2859 2611 2941 3203 2960 3164 3165 3133 3106 3174 3088 2959 3319 3038 3047 2955 3046 3156 2701 2788 3112 3150 2931 2905 
3120 3145 2809 2981 3454 3476 3072 3012 3289 3216 3391 2974 2817 3237 2887 3166 2867 3263 2836 2981 3360 3266 3317 3122 3209 3320 3061 3336 3341 3309 3207 3034 3278 2890 3174 3084 3229 3164 3212 3228 3183 3023 3069 3219 3106 3501 3065 3176 3401 3111 2681 3186 3037 3031 3076 3076 3300 3344 3190 2953 3114 3300 2807 3041 2947 3231 3154 3063 3304 2953 3056 3206 3364 3221 3142 3255 3149 2995 3377 3093 3003 3203 3121 2952 3320 3140 3317 3154 3147 3156 3241 3287 3066 3082 3012 3003 3186 3147 3063 2888 3329 2994 3018 2959 2900 2808 3077 3158 2986 3067 3212 3230 3124 2955 3011 3061 3376 3212 3134 3044 3104 3322 2757 2854 3289 3250 3172 2897 
3202 3240 2973 2793 3296 3231 3099 3125 3298 3239 3362 3162 2810 3258 2828 3246 2898 3233 2840 3021 3312 3261 3202 3248 3198 3257 2993 3372 3353 3358 3281 3073 3243 3081 3263 3042 3149 3236 3121 3179 3337 2949 3205 3303 3191 3353 2872 3129 3373 3214 2794 3130 2989 3179 3143 3267 3170 3299 3289 3191 3114 3099 2826 2996 2835 3325 2998 3100 2942 2843 3056 3205 3328 3344 3097 3281 3161 3179 3191 3035 3186 3174 3270 2945 3331 3231 3457 3261 3092 3257 3218 3344 3266 3117 3332 2915 2906 3178 3111 3022 3376 3109 3041 3043 2837 3009 3010 3245 3020 3081 3264 3173 3260 3153 3082 3056 3665 3173 3147 3087 3223 3211 2894 2945 3359 3194 3251 2990 
3077 3080 2751 2732 3239 3159 3078 2835 2963 3163 3183 2893 2882 3107 2722 2913 2695 2975 2753 2844 3132 3109 3163 2960 3085 3031 2876 3113 3262 3026 3044 2820 3198 2866 3076 2869 3202 3182 2882 3080 3050 2826 3020 3067 3003 3146 2822 2873 3124 2852 2702 2852 2931 3047 3011 2942 3092 3035 3074 3001 2926 3017 2844 2801 2738 2979 3098 2938 2961 2899 2907 3035 3203 3131 3012 3129 2871 2917 3110 2837 3094 2965 2880 2913 3274 3155 3417 3171 2987 3026 2976 3303 3064 2879 3047 2893 2996 3040 2925 2828 3074 2999 2876 2910 2664 2796 2788 3058 2891 3024 3070 3053 2989 2968 3010 2932 3371 3088 2854 2879 3019 3185 2659 2723 3063 3239 2948 2909 
3326 3114 2929 2740 3263 3275 3122 3143 3234 3240 3323 3073 2848 3239 2885 2951 2857 3284 2616 3031 3281 3159 3400 3200 3313 3328 3050 3238 3256 3253 3189 3083 3223 2850 3119 3144 3145 3234 3109 3170 3070 2843 3114 3231 3267 3289 2853 3113 3166 3187 2649 3092 2878 3103 3132 3101 3254 3109 3118 3112 2976 3050 2939 3030 2852 3089 3028 3172 3141 2942 3044 3268 3467 3327 3030 3291 3119 2921 3362 3079 3073 3198 3035 2930 3378 3185 3518 3329 2972 3217 3155 3377 3194 3106 3153 3060 2991 3133 3267 3086 3361 2942 3115 3015 2898 2794 3012 3272 3076 3113 3374 3218 3166 3139 3041 3063 3511 3261 3150 3095 2991 3217 2749 2934 3308 3079 3050 2875 
3313 3311 2833 2761 3342 3403 3210 3053 3293 3222 3404 2944 2832 3219 2834 2980 2786 3154 2892 2959 3330 3188 3347 3099 3218 3328 3011 3204 3227 3361 3257 2879 3297 2868 3218 3076 3189 3308 3180 3210 3166 2835 3184 3247 3014 3330 2946 3041 3354 3046 2908 2970 2926 3119 3134 3126 3162 3226 3107 2939 3142 3099 2955 3087 2866 3181 3103 3060 3178 2862 3161 3216 3242 3354 3094 3127 3141 2996 3182 3052 3103 3122 3153 3063 3370 3085 3485 3243 3011 3024 3095 3349 3104 3128 3164 3074 3067 3238 3148 2850 3353 3128 2997 2994 2804 2858 2914 3230 2999 3122 3326 3154 3274 3131 3240 2895 3491 3185 3103 3026 3149 3247 2761 2782 3283 3078 3243 2937 
3305 3372 2981 2948 3440 3448 3249 3159 3427 3364 3251 3150 3083 3502 2906 3106 3100 3382 2939 3246 3263 3453 3353 3261 3386 3516 3199 3396 3394 3357 3431 3087 3385 2982 3310 3276 3541 3305 3299 3292 3241 2815 3307 3353 3221 3462 3040 3395 3445 3249 2883 3131 3195 3171 3388 3169 3283 3442 3379 3286 3178 3259 2951 3276 2945 3244 3201 3125 3344 2966 3315 3292 3525 3466 3273 3416 3243 3179 3396 3079 3242 3328 3418 3136 3504 3409 3626 3552 3146 3379 3249 3488 3375 3207 3356 3137 3092 3280 3304 3170 3308 3224 3206 3101 2944 3017 3125 3377 3138 3232 3419 3371 3333 3222 3370 3192 3798 3413 3281 3147 3178 3379 2872 2959 3461 3396 3396 3027 
3261 3152 2712 2746 3356 3302 3062 2879 3354 3186 3347 3060 2978 3411 2764 3134 2823 3284 2824 2886 3253 3019 3142 3149 3356 3361 3073 3455 3331 3275 3198 3104 3237 3033 3186 3096 3225 3147 3114 2932 3183 2970 3296 3131 3172 3449 2901 3096 3323 3106 2821 3133 3185 3145 3180 3212 3322 3285 3200 3086 2991 3203 2762 2975 2941 3235 3198 3157 3171 2805 3210 3082 3283 3349 3066 3135 3097 3006 3243 2935 3097 3206 3144 3033 3421 3231 3414 3285 3083 3116 3134 3300 3127 3217 3138 3112 3107 3110 3222 2925 3240 2958 2992 3078 2764 2874 3081 3381 3066 3140 3282 3201 3074 3013 3268 3081 3484 3244 3080 3108 3175 3437 2756 2962 3268 3194 3068 2803 
3278 3275 2981 3101 3620 3368 3379 3282 3392 3537 3342 3257 3040 3363 2921 3260 2962 3332 2813 3227 3422 3305 3239 3337 3338 3489 3244 3360 3220 3336 3579 3198 3412 3097 3208 3217 3338 3338 3184 3203 3232 2944 3238 3492 3294 3451 3137 3362 3535 3125 2808 3273 3295 3256 3334 3141 3361 3456 3444 3232 3283 3110 2839 3211 3021 3212 3305 3329 3258 3182 3129 3366 3539 3551 3285 3372 3217 3259 3448 3356 3182 3398 3188 3047 3458 3341 3700 3420 3339 3334 3304 3436 3343 3378 3218 3112 3138 3270 3302 3130 3293 3286 3061 3252 3012 2940 3151 3390 3181 3272 3452 3252 3400 3205 3228 3253 3598 3280 3226 3203 3244 3636 2870 2928 3511 3315 3410 3102 
3373 3377 2963 2853 3335 3539 3289 3208 3239 3375 3346 3051 2981 3356 2903 3158 3024 3273 2895 3136 3334 3243 3277 3159 3321 3500 3153 3456 3282 3286 3432 3001 3281 2987 3365 3203 3254 3197 3155 3210 3186 2942 3284 3379 3127 3475 2940 3358 3358 3211 2801 3067 3144 3288 3253 3243 3332 3468 3313 3179 3112 3195 2959 3154 2981 3247 3253 3142 3252 2969 3144 3286 3493 3480 3264 3317 3026 3150 3381 3173 3178 3260 3182 3111 3471 3304 3632 3369 3112 3232 3078 3572 3407 3298 3342 2992 2972 3141 3258 2863 3253 3324 3033 3090 2915 2963 2885 3241 3259 3083 3484 3307 3218 3147 3265 3144 3559 3290 3071 3116 3335 3281 2861 2987 3343 3263 3331 3075 
3065 2969 2739 2646 3316 2967 2842 2857 3167 3013 3281 2964 2797 3049 2671 2875 2665 3080 2590 2875 3110 2914 2970 2974 3104 3232 2977 3083 3071 3079 3269 2772 3013 2878 2926 2969 3223 3078 2858 2950 2920 2669 3044 2987 2861 3190 2839 2939 3134 2915 2609 2788 2967 2848 2983 2873 3003 3071 2897 2791 2835 3010 2577 2907 2770 2819 3107 3097 2991 2797 2886 2999 3204 3131 3050 2993 2914 2815 3074 2871 3006 2954 2914 2967 3181 3036 3393 3114 3009 2996 2933 3282 2992 2847 2976 2875 2803 3036 2997 2871 2933 2880 2919 2928 2722 2745 2884 3177 2827 2992 3075 2982 2968 2861 3086 2947 3284 2983 2876 2790 2893 3215 2531 2740 3045 2973 2881 2713 
3061 2975 2712 2676 3096 3232 3069 3055 3173 3064 3131 2945 2639 3075 2619 2943 2681 3029 2705 2896 3318 2979 3090 3044 3131 3359 3002 3230 3173 3021 3163 2857 2969 2825 2960 2984 3078 3203 2991 2970 3088 2915 2874 3098 2972 3137 2861 3140 3368 2891 2720 2945 2904 3061 2871 2971 3064 3002 3100 3108 2866 2964 2820 2875 2853 3145 2929 2814 3051 2789 3021 3006 3120 3252 2978 3101 2854 2877 3123 3051 2900 3068 3002 2962 3248 3124 3415 3185 2875 3010 3104 3371 2986 3074 3072 2829 2967 3034 3001 2711 3090 2875 2899 2828 2459 2771 2942 3051 2980 2939 3022 3169 3043 2889 3045 3038 3424 2982 2842 2861 3039 2967 2744 2734 3308 2923 3202 3038 
3281 3292 2915 2655 3255 3567 3183 3169 3184 3259 3389 2951 2827 3262 2874 3130 2834 3188 2953 3009 3367 3224 3460 3202 3342 3518 3181 3462 3361 3335 3218 3013 3316 2925 3213 3145 3147 3387 3168 3230 3220 2890 3079 3145 3200 3250 2980 3266 3488 3017 2919 3142 3087 3233 3134 3142 3259 3255 3230 3186 3150 3247 2899 3051 3062 3202 3222 3167 3298 3052 3102 3287 3381 3411 3217 3379 3108 3173 3277 3011 3237 3248 3300 3111 3404 3290 3599 3226 3065 3301 3165 3516 3270 3184 3271 3022 3168 3083 3098 3085 3314 3037 3087 3122 2950 2817 3074 3345 3259 3214 3327 3223 3143 3062 3283 3255 3453 3164 3155 3176 3208 3290 2684 2854 3471 3188 3388 3042 
3283 3127 2750 2709 3383 3359 3082 3022 3206 3177 3279 3125 2908 3432 2848 3111 2854 3197 2742 3143 3138 3276 3223 3206 3284 3377 3112 3340 3315 3227 3285 3092 3192 2967 3068 3045 3284 3272 3180 3143 3226 2810 3156 3119 3064 3417 2918 3194 3350 2960 2727 3136 3090 3233 3275 3136 3335 3113 3157 3177 3088 3119 2857 3109 2982 2996 3127 3141 3195 2934 3080 3113 3358 3415 3117 3227 3037 3081 3273 2943 3115 3268 3234 2945 3262 3324 3549 3302 3108 3180 3020 3295 3205 3201 3070 2876 3157 2981 3216 2961 3309 2881 3085 3011 2893 2836 2983 3190 3025 3073 3252 3185 3194 2935 3174 3027 3448 3139 3061 3098 3101 3233 2600 2904 3226 3280 3093 2858 
3119 3127 2647 2716 3212 3272 3090 2925 3204 3194 3107 2919 2811 3196 2535 2963 2558 3101 2773 2917 3129 3088 3101 3169 3202 3240 2967 3343 3170 3075 3107 2879 3250 2824 3095 2949 2986 3094 2967 2991 2915 2708 2791 3136 3049 3171 2937 3096 3370 2957 2767 3096 2993 3092 2953 2962 3270 3267 3209 3033 2988 3039 2555 3031 2874 3046 3084 3015 3096 2914 3052 3013 3158 3372 2980 3029 2936 3038 3143 3059 3120 3194 3151 2839 3266 3013 3398 3349 2902 3127 3068 3224 3257 3085 3133 2877 3043 3021 3036 2865 3121 2801 2949 2892 2647 2713 2745 3048 2943 2926 3163 3072 3042 3088 2939 3151 3293 2980 3093 2874 2971 3219 2759 2652 3233 3101 3030 2846 
3420 3477 3104 2974 3776 3497 3388 3267 3776 3433 3505 3442 3173 3724 3050 3419 3180 3584 3040 3234 3631 3599 3390 3421 3488 3609 3349 3546 3561 3580 3546 3423 3560 3358 3455 3261 3604 3581 3462 3476 3288 3055 3459 3553 3441 3639 3394 3507 3736 3388 3035 3454 3448 3331 3281 3445 3567 3604 3515 3324 3396 3539 3145 3492 3421 3321 3302 3396 3562 3302 3545 3491 3548 3676 3529 3595 3388 3514 3555 3417 3344 3585 3439 3271 3583 3493 3893 3623 3251 3430 3469 3712 3447 3442 3373 3285 3392 3565 3433 3261 3579 3310 3494 3352 3188 3046 3414 3350 3316 3402 3717 3542 3457 3359 3400 3380 3804 3450 3433 3218 3475 3724 2910 3284 3586 3555 3401 3150 
3210 2981 2579 2539 3273 3102 2913 2883 3303 3035 3150 2977 2704 3249 2609 3026 2723 3091 2661 2886 3061 2984 2954 2994 3184 3201 2964 3200 3063 3118 3230 2836 3125 2761 3003 2972 3162 3142 2879 2932 2960 2630 2988 3093 2888 3177 3005 2995 3092 2911 2669 2896 3063 3066 2986 2914 3124 3089 3031 2848 2763 3088 2691 2928 2897 3048 3056 2984 3186 2903 3059 3038 3137 3113 2917 3055 2912 2953 3173 3024 3033 2999 3175 2944 3104 3152 3409 3159 3014 3087 2929 3216 3059 2958 3104 3001 2866 3189 3062 2881 3133 2957 2985 2871 2660 2612 2936 3006 2966 2973 3147 3079 2964 2866 3097 2946 3340 2923 3018 2942 2976 3217 2580 2967 3053 3244 2971 2707 
3232 3112 2738 2810 3272 3419 3137 3067 3190 3172 3261 3131 2908 3245 2837 3129 2881 3293 2790 3063 3373 2978 3294 3192 3239 3551 3074 3384 3411 3102 3293 3165 3104 2856 3221 3196 3118 3190 3133 3165 3216 2885 3127 3221 3056 3272 2798 3134 3286 3067 2775 2941 2947 3149 3082 3136 3211 3189 3141 3034 3189 3303 2884 3150 3001 3089 3142 3156 3040 2931 3127 3053 3403 3373 3132 3324 2974 3097 3235 3014 3060 3284 3241 3004 3413 3318 3558 3128 3035 3213 3118 3430 3114 3143 3228 2982 2994 3111 3069 2979 3316 3051 3072 3038 2850 2866 3052 3216 3132 3068 3254 3126 2996 3198 3167 3077 3445 3203 3121 3023 3094 3365 2796 2977 3217 3122 3115 2993 
3261 3482 2845 2991 3423 3445 3222 3165 3332 3389 3375 3236 2994 3422 2881 3263 2877 3319 2883 3112 3465 3269 3344 3149 3274 3654 3323 3550 3396 3337 3366 2974 3368 2911 3292 3038 3411 3269 3251 3135 3287 2911 3235 3377 3319 3521 2977 3200 3443 3187 2764 3260 3132 3338 3258 3278 3343 3356 3397 3190 3113 3311 2980 3248 2996 3224 3383 3284 3388 3026 3320 3371 3515 3533 3168 3211 3099 3237 3461 3373 3247 3294 3243 3167 3395 3200 3661 3418 3155 3338 3263 3387 3388 3392 3194 3149 3067 3241 3351 2867 3370 3254 3214 3067 2964 2924 3163 3213 3272 3187 3464 3270 3298 3164 3271 3114 3622 3315 3260 3106 3234 3453 2902 2995 3440 3184 3231 2970 
3389 3257 2869 2891 3367 3368 3348 3196 3455 3372 3326 3091 2974 3389 2933 3046 2927 3216 2907 3210 3398 3345 3218 3113 3409 3490 3067 3412 3457 3288 3430 3083 3286 2943 3427 3347 3070 3357 3201 3245 3306 2864 3227 3361 3156 3347 2917 3311 3436 3168 2809 3047 3086 3296 3085 3296 3355 3290 3161 3179 3222 3282 3028 3085 2940 3305 3192 3137 3371 2984 3222 3339 3502 3482 3073 3280 3189 3152 3402 3148 3112 3175 3275 3110 3447 3346 3572 3231 2979 3255 3224 3568 3239 3377 3279 3069 3160 3147 3194 2951 3368 3016 3083 3201 2927 2864 3255 3412 3206 3125 3401 3342 3277 3137 3294 3148 3693 3364 3001 3194 3368 3328 2834 2980 3456 3175 3320 3133 
3145 3029 2897 2912 3267 3285 2960 3082 3209 3272 3221 2904 2864 3316 2698 3095 2837 3168 2840 3067 3122 3182 3171 2944 3340 3365 3109 3266 3299 3107 3222 2961 3343 2902 3108 3071 3152 3327 3122 3097 3126 2912 2996 3153 3137 3264 2943 3040 3231 3102 2667 3170 3088 3151 3136 3158 3385 3162 3223 3065 3031 3194 2704 3169 2947 3025 3131 3128 3436 2916 3023 3226 3359 3290 3088 3242 3162 2901 3180 3049 3073 3177 3137 2970 3415 3208 3471 3329 2880 3218 3223 3355 3220 3140 3175 2932 3078 3080 3202 2974 3069 2964 3007 3074 2905 2883 2895 3270 3095 2998 3147 3223 3142 3119 3232 3065 3399 3187 2969 2956 3198 3142 2685 2731 3266 3250 3080 2922 
3090 3086 2584 2732 3178 3088 2999 2859 3035 3046 3022 2905 2792 3198 2790 2970 2594 3141 2583 2776 3175 3150 3101 3172 2944 3146 2766 3108 3134 3065 3231 2998 3159 2660 2997 3048 3072 3158 2978 2947 2957 2706 2908 3013 2895 3174 2851 3037 3255 2834 2668 3062 2735 3098 2897 2977 3176 3186 2973 2928 2927 2975 2698 2910 2859 3046 3095 2878 3046 2853 2975 2863 3166 3267 3035 3050 2853 2903 3147 2982 2913 3145 3045 2961 3138 2912 3327 3059 3054 3039 3014 3197 2967 3052 2980 2824 2820 2961 3028 2765 3133 2918 2893 2895 2663 2645 2854 2877 2892 2913 3225 2969 3111 2963 2977 2942 3257 3062 2994 2844 2987 3109 2640 2753 3071 3032 2954 2918 
3341 3400 2985 2961 3550 3438 3260 3131 3614 3459 3650 3111 3088 3326 2938 3152 2938 3368 2816 3116 3537 3412 3391 3345 3527 3602 3235 3472 3626 3427 3451 3217 3456 3079 3467 3249 3394 3376 3105 3263 3289 2955 3288 3469 3400 3541 3035 3395 3526 3298 2946 3220 3242 3221 3395 3359 3332 3404 3399 3240 3231 3389 2958 3539 3189 3259 3305 3205 3285 3127 3297 3256 3646 3614 3433 3548 3203 3276 3482 3157 3227 3395 3352 3090 3496 3396 3682 3485 3190 3409 3309 3582 3326 3407 3385 3292 3218 3429 3354 3129 3443 3186 3242 3236 2989 2979 3018 3470 3245 3248 3452 3307 3275 3395 3369 3155 3803 3418 3266 3209 3322 3590 2833 3014 3435 3390 3157 3105 
3116 3154 2783 2788 3302 3352 2971 3014 3266 3161 3165 3081 2770 3326 2670 3121 2816 3228 2844 2964 3204 3115 3169 2950 3305 3396 3074 3340 3109 3199 3193 2961 3198 2950 3167 3000 3291 3038 3160 3093 3115 2709 3015 3163 2971 3298 2942 3082 3217 2868 2768 2996 3071 3050 3141 3073 3075 3285 3005 2953 3035 3169 2723 3023 2752 3003 2983 3102 3159 2886 3160 3281 3296 3381 3001 3214 2952 2987 3286 2946 3071 3089 3239 2953 3275 3294 3493 3143 2876 3201 2959 3436 3197 3147 3194 2993 3060 3025 3009 2919 3211 2879 3117 3013 2793 2815 2892 3123 2955 3049 3275 3290 3074 3159 3148 3052 3452 3093 3098 3029 3133 3095 2758 2810 3223 3052 3195 2860 
3278 3331 2949 2876 3439 3466 3272 3183 3495 3203 3506 3192 2945 3324 2998 3110 2972 3346 2891 3049 3426 3220 3416 3129 3427 3494 3182 3397 3500 3338 3448 3219 3355 3127 3338 3121 3327 3399 3244 3308 3315 3042 3277 3307 3192 3467 3058 3157 3545 3198 2821 3116 3201 3220 3211 3193 3302 3391 3329 3163 3150 3251 2940 3160 2989 3344 3297 3200 3179 3056 3199 3225 3316 3489 3249 3436 3124 3198 3360 3119 3122 3395 3214 3186 3478 3296 3661 3365 3153 3275 3315 3490 3350 3303 3313 3135 3199 3241 3210 3156 3286 3212 3252 3209 2879 3065 3172 3401 3148 3152 3352 3238 3250 3201 3228 3270 3599 3380 3117 3079 3182 3500 2844 2952 3482 3294 3216 3103 
3395 3299 3122 2921 3386 3437 3273 3360 3470 3389 3500 3323 2910 3438 2797 3080 2888 3267 2978 3156 3279 3303 3496 3192 3470 3657 3263 3370 3428 3402 3471 3062 3398 2967 3303 3155 3313 3464 3260 3433 3298 2991 3127 3327 3312 3443 3172 3241 3514 3358 2789 3288 3057 3406 3089 3143 3481 3333 3419 3058 3176 3378 2979 3270 2945 3200 3296 3357 3373 3239 3241 3281 3502 3427 3103 3323 3115 3178 3360 3146 3321 3392 3093 3257 3482 3393 3835 3469 3178 3399 3282 3387 3399 3256 3302 3135 3348 3237 3382 2974 3462 3153 3152 3256 2912 2879 3041 3319 3312 3140 3348 3477 3372 3172 3292 3370 3776 3254 3131 3277 3342 3481 2876 2984 3349 3393 3279 3054 
3280 3254 3027 2811 3415 3503 3321 3386 3411 3386 3280 3096 2839 3439 2906 3216 2937 3423 2907 3218 3558 3137 3457 3192 3460 3653 3327 3501 3455 3363 3395 3291 3391 3009 3263 3021 3123 3273 3326 3355 3290 3087 3200 3368 3324 3363 3126 3264 3356 3182 2955 3144 3223 3354 3250 3327 3311 3434 3225 3293 3223 3202 3101 3249 3042 3357 3139 3253 3273 3080 3294 3413 3519 3398 3131 3362 3120 3186 3313 3207 3249 3389 3316 3229 3471 3512 3690 3370 3012 3437 3130 3511 3376 3382 3324 3324 3308 3235 3183 3146 3496 3126 3275 3158 2898 2954 3124 3385 3233 3206 3410 3573 3190 3088 3399 3371 3614 3412 3243 3341 3337 3451 2759 3223 3482 3328 3278 3183 
3108 3059 2798 2852 3232 3201 3041 2996 3166 3104 3275 2867 2744 3187 2837 2938 2754 3061 2678 2824 3242 3053 3058 3063 3049 3267 2912 3198 3153 3203 3039 2924 3156 2798 3115 2932 3101 2969 3029 3083 2891 2665 2938 3065 3089 3295 2677 3062 3223 3088 2622 2917 2882 3066 2982 2998 3104 3029 3068 2945 3029 2914 2838 2945 2892 2945 2990 2951 3200 2818 2992 2953 3179 3298 2989 3089 2941 2878 2971 2931 3074 2936 2994 2957 3190 2975 3341 3179 2934 3050 2941 3319 3033 3055 3049 2850 3045 2893 3138 2830 3132 2913 2871 2909 2710 2792 2905 3136 3113 2825 3124 3118 2952 3033 2950 3090 3450 3153 3125 2994 3101 3188 2679 2772 3253 3077 3010 2812 
3204 3263 2873 2914 3456 3268 3283 3109 3319 3255 3302 3083 2854 3403 2849 3148 2800 3234 2774 3017 3201 3288 3276 3201 3352 3376 3045 3327 3317 3209 3286 3128 3298 2963 3194 3142 3291 3238 3250 3254 3108 2856 3015 3248 3143 3325 3043 3186 3466 3179 2711 3114 2951 3166 3045 3179 3403 3350 3269 3056 3053 3340 2911 3094 3040 3125 3171 3236 3224 3003 3118 3215 3408 3342 3195 3242 3101 3091 3317 3116 3185 3276 3019 3021 3362 3100 3547 3309 3093 3278 3206 3351 3149 3181 3131 2935 3187 3117 3211 2880 3303 3065 3131 3131 2917 2792 3066 3139 3143 3024 3411 3247 3165 3012 3145 3186 3440 3248 3194 3065 3081 3292 2794 3007 3215 3162 3048 2960 
3174 3054 2767 2759 3371 3155 2936 3021 3119 3177 3233 2995 2771 3206 2940 2988 2725 3169 2766 2828 3289 3050 3100 3091 3259 3375 3101 3276 3327 3019 3071 3019 3119 2894 3112 2997 3116 3133 3091 3153 3159 2722 3019 3000 2871 3185 2798 3201 3320 2992 2742 3045 2920 3234 3119 3234 3152 3111 3139 3094 2994 3041 2705 2987 2920 3142 2991 2918 3093 2871 3036 3127 3314 3237 2983 3213 2778 3093 3074 2918 3019 3048 3149 2877 3279 3250 3475 3221 2944 3073 2914 3422 3055 3141 2945 2812 3021 3033 3037 2686 3174 2973 2917 2967 2546 2740 3038 3159 2938 2891 3222 3068 3071 2980 2960 2977 3435 3108 2811 2932 3113 3219 2696 2872 3195 3146 3128 3052 
3293 3241 2986 3029 3406 3412 3366 3249 3508 3284 3423 3330 3082 3457 3072 3271 3027 3405 2865 3222 3429 3279 3293 3251 3282 3746 3302 3456 3554 3333 3535 3308 3344 3160 3331 3326 3482 3451 3371 3424 3378 3094 3280 3295 3159 3363 3027 3345 3499 3290 2706 3079 3190 3326 3216 3293 3409 3399 3281 3303 3281 3343 2910 3198 3142 3284 3203 3258 3342 3060 3268 3330 3460 3582 3236 3458 3318 3097 3454 3321 3217 3461 3308 3171 3463 3336 3784 3519 3280 3257 3401 3484 3359 3319 3484 3141 3343 3301 3205 3178 3496 3100 3324 3287 2917 3044 3383 3374 3207 3162 3325 3409 3281 3299 3303 3376 3618 3459 3301 3141 3304 3449 2957 2983 3521 3375 3272 3091 
3183 3048 2651 2731 3393 3306 3107 2920 3263 3075 3230 2929 2841 3200 2800 3037 2896 3146 2662 2844 3176 3035 3193 2975 3139 3331 3119 3251 3282 3104 3249 2944 3193 2778 3147 2950 3233 3040 2907 3054 3160 2723 3037 3124 2946 3309 2836 3162 3300 2970 2752 3003 3001 3015 3034 2974 3132 3101 3048 3170 2877 3050 2804 3081 2849 3004 3161 3015 3094 2833 3020 3116 3123 3196 3054 3098 3113 2885 3261 2935 3142 3121 3138 3013 3117 3281 3474 3249 2985 3036 3037 3328 3090 3162 3102 2887 2955 3090 3030 2878 3276 2946 2834 2944 2646 2952 2982 3098 3006 2922 3176 3154 2971 2878 3030 2973 3375 3104 2981 2924 3043 3236 2628 2810 3398 3004 3058 2870 
3309 3511 2999 3008 3577 3303 3425 3272 3502 3418 3346 3347 2944 3352 2864 3257 2948 3524 2926 3195 3579 3316 3383 3359 3399 3557 3269 3378 3341 3315 3439 3146 3333 3154 3246 3223 3433 3358 3190 3352 3380 2829 3153 3315 3386 3536 3018 3289 3582 3338 2886 3296 3323 3380 3395 3351 3450 3496 3415 3285 2965 3361 2914 3304 3143 3196 3168 3305 3375 3093 3254 3372 3592 3581 3327 3423 3333 3237 3383 3273 3285 3308 3276 3210 3403 3335 3749 3457 3148 3430 3317 3551 3510 3370 3327 3154 3333 3350 3410 3030 3342 3183 3232 3085 2977 2912 3358 3394 3263 3222 3323 3472 3292 3185 3361 3318 3693 3465 3266 3206 3338 3430 2632 3126 3440 3274 3256 3022 
3441 3412 2904 2903 3637 3555 3269 3218 3481 3267 3526 3148 3032 3542 2961 3316 2902 3376 3098 3031 3539 3385 3368 3285 3371 3561 3237 3430 3384 3477 3341 3071 3443 3117 3396 3090 3365 3442 3346 3351 3430 3134 3379 3243 3192 3547 3109 3319 3628 3218 2897 3259 3150 3342 3296 3285 3372 3355 3454 3157 3231 3177 3167 3238 3065 3450 3394 3127 3334 3153 3400 3236 3288 3473 3209 3435 3183 3229 3389 3212 3444 3210 3314 3205 3568 3500 3727 3398 3233 3372 3353 3710 3333 3175 3255 3202 3178 3251 3311 3055 3532 3206 3179 3148 2890 3014 3214 3326 3205 3362 3232 3416 3315 3173 3299 3138 3685 3291 3329 3123 3312 3411 2911 3066 3483 3300 3449 3077 
3516 3387 2994 3136 3516 3640 3326 3357 3544 3573 3626 3302 3087 3506 3021 3305 3135 3428 3107 3352 3539 3417 3584 3295 3528 3577 3351 3682 3537 3489 3506 3206 3470 3213 3321 3381 3463 3372 3324 3384 3460 3026 3401 3630 3286 3763 3181 3258 3600 3392 2972 3174 3184 3267 3351 3189 3340 3461 3376 3246 3168 3331 3171 3331 3106 3416 3336 3326 3546 3048 3262 3447 3590 3595 3339 3478 3287 3184 3532 3177 3385 3408 3440 3217 3786 3485 3680 3430 3323 3358 3414 3669 3471 3319 3344 3382 3272 3297 3381 3161 3540 3325 3169 3299 3032 3165 3225 3338 3276 3319 3454 3511 3272 3355 3370 3367 3728 3479 3234 3369 3306 3677 3129 3054 3637 3312 3474 3106 
3286 3465 2951 3118 3494 3439 3238 3157 3407 3437 3431 3194 2948 3295 2995 3211 2979 3284 2932 3256 3418 3318 3396 3256 3310 3521 3047 3480 3408 3299 3324 3119 3373 2998 3364 3276 3421 3292 3231 3213 3059 3080 3215 3388 3199 3454 3097 3237 3538 3143 2821 3143 3115 3208 3243 3174 3143 3425 3238 3069 3251 3234 2904 3278 2903 3252 3198 3125 3327 3020 2987 3128 3570 3556 3214 3312 3141 3185 3386 3364 3143 3258 3230 3068 3520 3277 3585 3299 3217 3350 3110 3371 3291 3278 3198 3160 3376 3356 3282 3091 3232 3126 3087 3146 2858 2949 3119 3316 3154 3097 3281 3333 3263 3288 3120 3165 3506 3421 3275 3215 3184 3377 2781 2850 3388 3212 3236 3019 
3667 3612 3165 3185 3862 3840 3611 3460 3677 3658 3652 3295 3234 3814 3164 3459 3289 3655 3117 3319 3687 3601 3660 3529 3647 3922 3548 3916 3843 3566 3837 3358 3750 3253 3661 3335 3618 3718 3474 3631 3756 3343 3527 3710 3636 3746 3284 3498 3600 3584 3109 3594 3507 3514 3591 3690 3754 3755 3569 3520 3447 3655 3249 3596 3383 3570 3627 3605 3559 3319 3678 3628 3796 3729 3481 3917 3471 3427 3641 3562 3595 3602 3657 3543 3696 3781 3955 3690 3255 3696 3623 3922 3612 3520 3657 3498 3442 3524 3535 3362 3768 3436 3632 3604 3334 3276 3441 3582 3562 3547 3933 3644 3581 3479 3690 3524 3982 3652 3479 3351 3600 3767 3097 3457 3807 3683 3570 3389 
3106 2951 2722 2518 3132 3091 2871 2948 3116 3134 2973 2932 2821 3089 2596 2957 2758 3082 2566 2813 3040 3036 3130 2994 3168 3146 2910 3152 3035 3004 3184 2954 3076 2826 2957 2790 2947 3057 2952 2975 2891 2667 2914 3181 3024 3126 2740 2928 2994 2945 2518 3003 2922 2927 2783 2963 3012 3142 2966 2821 2917 2975 2678 2981 2776 2937 2842 2844 3020 2769 2904 3106 3105 3119 2797 2925 2879 2773 3151 2846 2994 3028 2916 2860 3113 2868 3271 3113 2787 3113 3010 3115 3016 3018 3032 2822 2884 3023 3100 2794 3047 2859 2975 2976 2667 2711 2846 3105 2859 2952 3216 2942 2913 2951 2896 2942 3276 3051 2867 2908 2924 3220 2601 2792 3162 2824 2976 2736 
3454 3684 3008 3082 3582 3582 3432 3396 3511 3460 3477 3282 3142 3507 3022 3189 3122 3526 3025 3345 3652 3548 3542 3342 3571 3687 3425 3559 3592 3610 3495 3361 3427 2978 3323 3296 3547 3448 3366 3451 3427 3039 3222 3462 3424 3534 3110 3601 3571 3262 3057 3181 3300 3338 3518 3335 3420 3426 3417 3318 3214 3306 3245 3435 3249 3406 3460 3311 3462 3171 3495 3361 3580 3626 3371 3544 3390 3255 3438 3166 3344 3496 3412 3340 3484 3486 3737 3583 3357 3328 3332 3609 3381 3514 3399 3246 3204 3406 3395 3290 3492 3386 3351 3269 3036 3157 3261 3448 3272 3301 3612 3555 3475 3389 3555 3249 4015 3527 3327 3326 3424 3609 2870 3121 3501 3578 3441 3214 
2859 2821 2512 2605 2954 3096 2751 2760 2941 2970 3065 2811 2594 2895 2486 2876 2594 3012 2540 2693 2974 2756 3002 2845 2944 3160 2834 3060 2978 2833 2863 2701 2925 2610 2948 2675 2991 2884 2929 2862 2901 2669 2705 2803 2788 3134 2582 2825 3013 2867 2501 2715 2687 2896 2782 2810 2906 2963 2987 2738 2769 2885 2552 2880 2710 2659 2695 2839 2941 2706 2904 2892 3102 3038 2788 2994 2762 2684 2933 2747 2836 2876 2855 2836 2997 2976 3262 2972 2785 3086 2805 3070 2930 2788 2712 2769 2881 2609 2903 2563 3011 2704 2929 2647 2469 2532 2708 3035 2803 2707 2894 2931 2761 2736 2805 2892 3147 2875 2833 2780 2940 2986 2607 2640 2885 2800 2761 2621 
3370 3169 2837 2797 3322 3265 3174 2915 3280 3266 3238 3056 2816 3251 2890 3046 2898 3060 2743 3089 3370 3199 3208 3136 3195 3461 3054 3245 3296 3330 3397 3085 3307 2809 3343 2917 3212 3238 3028 3162 3089 2799 3228 3207 3204 3360 2894 3254 3176 3119 2650 3037 3050 3208 3122 3114 3259 3190 3194 3048 3149 3159 2883 3173 2846 2990 3062 3150 3203 2993 3229 3103 3395 3414 3182 3179 3136 3108 3218 3080 3017 3276 3307 3132 3169 3155 3586 3291 3023 3128 3113 3403 3263 3128 3268 2937 3062 3084 3236 2965 3223 3101 3104 2984 3028 2923 3036 3324 3204 2974 3275 3284 3173 3017 3228 3054 3564 3235 3072 3115 3207 3299 2685 2926 3292 3288 3004 2972 
3254 3189 2979 3020 3421 3415 3299 3191 3355 3371 3319 3114 2833 3402 2942 3149 2926 3303 2839 3096 3334 3200 3468 3064 3240 3456 3200 3396 3502 3271 3309 3083 3463 2900 3396 3069 3208 3387 3228 3363 3214 2936 3198 3311 3037 3510 3170 3189 3408 3028 2885 3173 3114 3316 3142 3252 3328 3293 3252 3141 3276 3206 2921 3239 2924 3262 3176 3165 3275 2998 3218 3384 3428 3432 3144 3302 3124 3171 3238 3129 3299 3350 3310 3045 3437 3393 3646 3362 3123 3212 3242 3456 3439 3229 3281 3017 3113 3247 3133 2946 3354 3080 3153 3042 2835 3061 3054 3214 2990 3011 3216 3387 3167 3168 3201 3323 3550 3346 3170 3077 3268 3395 2761 2913 3433 3442 3287 3133 
3331 3318 3045 2862 3694 3504 3214 3128 3386 3402 3539 3175 3009 3535 3106 3286 3010 3439 2868 2961 3578 3324 3418 3297 3393 3654 3221 3447 3524 3388 3406 3143 3411 3092 3381 3293 3425 3408 3125 3288 3259 2898 3301 3303 3393 3526 2995 3243 3490 3163 2967 3459 3278 3205 3323 3255 3399 3424 3267 3282 3153 3247 3038 3211 3121 3231 3188 3333 3426 3096 3298 3343 3580 3416 3436 3462 3241 3046 3395 3205 3316 3336 3377 3226 3525 3398 3615 3526 3071 3356 3219 3653 3286 3302 3203 3258 3206 3278 3264 3057 3325 3141 3248 3176 2913 2962 3023 3382 3189 3297 3341 3348 3254 3269 3203 3264 3699 3334 3336 3096 3301 3395 2858 2991 3587 3419 3229 3174 
3227 3230 2995 2885 3478 3261 3006 3211 3156 3436 3351 3092 3002 3329 2768 3108 2990 3253 2862 2930 3346 3275 3301 3175 3369 3450 3193 3398 3182 3222 3318 3008 3398 2948 3301 3012 3259 3295 3037 3046 3140 2986 3167 3293 3119 3203 3186 3190 3444 3140 2761 3176 3098 3089 3210 3173 3169 3360 3204 3034 3223 3204 2750 3196 2942 3232 3216 3330 3223 3094 3098 3187 3405 3286 3149 3275 3061 3007 3173 3112 3311 3177 3069 3153 3504 3331 3632 3440 3108 3296 3245 3500 3280 3096 3243 3187 2984 3231 3097 3097 3300 3212 2970 3216 2779 2884 3105 3306 3024 3236 3276 3140 3267 3137 3313 3031 3497 3078 3043 3066 2960 3398 2919 2982 3385 3094 3389 3035 
3349 3241 2878 2825 3410 3335 3332 3041 3365 3359 3362 3114 3086 3405 2876 3115 3039 3291 2930 3055 3398 3067 3202 3111 3445 3471 3208 3367 3257 3339 3322 3025 3244 2963 3112 3204 3282 3310 3197 3129 3261 2689 3269 3292 3225 3393 3086 3333 3433 3167 2861 3116 3161 3182 3257 3173 3216 3288 3384 3283 3182 3119 2900 3130 3019 3188 3000 3152 3246 2910 3135 3222 3441 3328 3156 3400 3157 3218 3421 3106 3278 3278 3282 3123 3424 3310 3639 3334 3085 3165 3060 3506 3164 3267 3187 3113 3143 3242 3184 2988 3269 3159 3145 3219 2939 2931 3232 3419 3160 3166 3505 3332 3336 3046 3171 3275 3612 3383 3103 3205 3205 3351 2786 2972 3250 3263 3394 3083 
3296 3222 2855 2882 3354 3370 3230 3133 3256 3266 3237 3277 2889 3478 2875 3130 2849 3328 2773 3048 3424 3165 3358 3223 3468 3390 3223 3537 3435 3294 3197 3131 3383 3000 3153 3044 3281 3417 3081 3280 3341 2971 3173 3309 3169 3405 3082 3244 3384 3118 2788 3193 3130 3485 3278 3364 3262 3356 3403 3322 3093 3248 2902 3202 3133 3242 3101 3211 3275 3015 3144 3255 3463 3489 3225 3328 2977 3320 3348 3106 3267 3197 3321 3066 3439 3448 3637 3330 3132 3375 3159 3577 3336 3319 3333 3025 3125 3235 3132 2951 3285 3225 3206 3033 2960 2943 3152 3296 3057 3146 3352 3271 3272 3071 3242 3127 3455 3309 3205 3070 3307 3442 2733 3077 3335 3295 3204 3105 
3033 3170 2854 2873 3287 3158 3006 3090 3184 3106 3175 3009 2850 3182 2786 3015 2840 3209 2827 3021 3351 3189 3218 3021 3131 3331 3213 3227 3366 3062 3265 2991 3174 2832 3146 2980 3095 3115 3119 3099 3117 2824 3114 3168 3106 3235 2904 3115 3346 2982 2743 3070 2989 3042 3138 3085 3108 3235 3099 3082 3057 3153 2695 3065 2854 3204 2989 3066 3120 2984 3038 2978 3331 3220 3063 3250 2854 2887 3161 3031 3001 3084 3156 2962 3246 3259 3436 3241 2925 3256 3063 3329 3133 3189 3005 2968 3050 3033 2993 2867 3113 3143 3024 3063 2780 2785 3056 3206 2809 3035 3286 3158 3118 3078 3156 3025 3503 3244 2900 2939 3177 3272 2792 2678 3259 3251 3259 2976 
3594 3577 3146 3200 3703 3686 3582 3461 3683 3568 3668 3428 3054 3600 3234 3416 3146 3488 3105 3468 3622 3614 3456 3439 3478 3824 3368 3624 3555 3628 3676 3345 3568 3206 3545 3537 3547 3462 3530 3486 3493 3139 3368 3618 3328 3735 3226 3515 3751 3189 2918 3302 3261 3450 3409 3256 3555 3681 3586 3322 3266 3479 3077 3400 3255 3409 3527 3410 3567 3275 3425 3455 3657 3780 3416 3551 3602 3324 3596 3484 3373 3530 3448 3306 3654 3525 3858 3628 3433 3519 3440 3641 3442 3518 3497 3302 3470 3484 3476 3272 3515 3338 3314 3322 3035 3159 3233 3453 3407 3264 3479 3655 3441 3645 3451 3350 3942 3496 3418 3358 3526 3613 3028 3081 3675 3487 3490 3109 
3368 3442 2966 3037 3551 3609 3302 3301 3591 3371 3566 3317 3209 3488 2947 3413 3074 3427 3057 3048 3474 3295 3364 3422 3359 3724 3310 3606 3582 3447 3574 3075 3347 3090 3293 3290 3482 3487 3197 3358 3402 2940 3359 3445 3368 3677 3154 3447 3704 3545 3020 3397 3318 3352 3492 3363 3612 3511 3550 3396 3343 3279 3055 3467 3073 3444 3320 3303 3448 3088 3422 3316 3538 3536 3374 3349 3352 3260 3591 3401 3385 3492 3372 3281 3565 3420 3673 3641 3251 3402 3399 3635 3393 3380 3432 3256 3212 3467 3388 2994 3502 3344 3182 3163 3020 3095 3245 3471 3289 3372 3528 3457 3356 3361 3392 3320 3682 3470 3280 3220 3477 3534 3003 2969 3539 3402 3368 3178 
3289 3188 2691 2639 3168 3170 3045 2955 3219 3038 3155 2907 2805 3214 2671 2952 2654 3222 2751 2954 3219 3116 3012 3080 3279 3297 2982 3249 3135 3260 3136 2962 3139 3007 3054 2941 3110 3151 3014 2927 3123 2859 3034 3002 3090 3219 2888 3075 3345 3105 2590 3084 3117 3078 2851 3079 3238 3271 3221 3017 2778 3132 2774 2852 3003 3155 3083 2999 3121 2891 3065 3082 3126 3202 3099 3211 2972 3026 3233 3050 3035 3185 3118 3052 3199 3115 3392 3128 3059 3298 3073 3244 3203 2944 3122 2982 3081 3068 3097 3073 3206 2892 3038 2981 2769 2730 2880 3086 3134 3036 3213 3115 3036 2974 3033 3090 3412 3004 3152 2878 3021 3210 2756 2929 3200 3063 3077 2825 
3382 3328 3039 3014 3518 3540 3403 3228 3281 3394 3659 3371 2931 3327 3113 3321 3010 3311 3088 3262 3516 3421 3385 3351 3441 3541 3348 3589 3596 3393 3521 3201 3515 3099 3448 3169 3510 3394 3257 3430 3347 3081 3347 3479 3266 3521 3086 3385 3583 3166 2910 3189 3237 3333 3444 3270 3327 3302 3485 3179 3284 3275 3008 3311 3061 3243 3411 3257 3405 3207 3354 3313 3574 3579 3253 3528 3235 3298 3272 3158 3406 3333 3197 3088 3585 3405 3679 3666 3248 3352 3200 3441 3605 3402 3309 3129 3373 3239 3294 3005 3361 3241 3128 3175 2857 3004 2965 3341 3255 3245 3298 3402 3407 3483 3241 3121 3826 3354 3225 3173 3414 3555 2908 2976 3621 3643 3361 3128 
3339 3465 2954 2927 3290 3490 3231 3112 3330 3537 3484 3240 3049 3192 2942 3115 3092 3303 2842 3167 3509 3220 3434 3279 3311 3625 3225 3513 3358 3356 3348 3126 3268 2956 3246 3114 3229 3420 3114 3375 3207 2996 3199 3330 3249 3561 3044 3324 3531 3227 2872 3172 3129 3392 3222 3118 3187 3315 3196 3325 3167 3348 2875 3233 3050 3250 3174 3170 3272 3161 3189 3355 3582 3416 3262 3313 3246 3255 3412 3114 3262 3238 3233 3184 3391 3375 3725 3327 3085 3404 3105 3401 3350 3325 3365 3204 3161 3385 3170 3064 3463 3259 3160 3030 2778 3028 3294 3308 3173 3133 3457 3454 3347 3200 3301 3229 3741 3354 3052 3158 3095 3457 2730 3071 3460 3231 3336 3125 
2974 3062 2649 2658 3045 3110 2957 2843 3053 2990 3188 3006 2665 3003 2800 2911 2693 2907 2723 2882 3077 2956 3108 2960 2962 3081 2942 3102 3064 2970 2970 2788 2906 2629 2930 2970 3085 3060 2893 3113 2927 2538 2755 3173 2887 3109 2921 2886 3170 2971 2586 2758 2849 3021 2970 2927 2849 2997 2966 2907 2812 2856 2650 2952 2759 3046 2799 2925 2999 2728 2760 2899 3109 3054 2918 2943 2879 3018 3029 2895 3068 3001 3053 2703 3170 3151 3325 3082 2846 2924 2870 3207 3075 3007 3065 2757 2881 3049 2890 2627 3078 2898 2870 2876 2588 2662 2826 2952 2735 2788 3001 2974 2919 2787 2840 2771 3183 3095 2881 2893 2942 2993 2537 2555 3046 2980 3039 2838 
3020 3134 2632 2829 3096 3138 3045 2882 3019 3128 3144 2991 2777 3085 2606 2954 2730 3070 2674 2837 3146 2937 2954 3164 3049 3156 2774 3122 3081 2892 3079 2841 3054 2697 2836 2941 3081 3163 2900 2917 3102 2636 2894 3078 2779 3219 2631 3068 3121 2812 2582 2786 2863 2947 3112 2773 3049 2909 3204 3045 2892 2985 2540 2954 2783 2943 2828 2912 2901 2766 2880 3051 3084 3251 2927 3147 2945 2975 3013 2910 3000 3151 2956 2942 3162 2938 3262 3158 2919 2957 2772 3200 2887 3059 2977 2913 2930 2964 2963 2820 3001 2878 2928 2877 2655 2712 2908 2995 2978 2763 3122 3130 2901 2998 2906 2974 3332 3061 2966 2794 2988 3152 2633 2680 3075 2990 3073 2820 
3928 3584 3276 3134 3621 3597 3445 3457 3526 3642 3730 3429 3333 3726 3223 3457 3058 3650 3122 3503 3676 3476 3740 3542 3677 3790 3453 3512 3758 3567 3701 3434 3583 3300 3521 3527 3537 3569 3448 3628 3550 3269 3656 3547 3406 3664 3261 3515 3759 3494 2949 3503 3297 3414 3544 3460 3587 3642 3534 3465 3389 3585 3158 3635 3281 3449 3468 3560 3673 3420 3483 3457 3704 3738 3483 3614 3373 3365 3634 3441 3519 3596 3416 3464 3847 3740 3898 3725 3346 3560 3426 3684 3636 3553 3424 3357 3550 3528 3551 3330 3671 3413 3396 3358 3030 3169 3266 3655 3367 3541 3553 3703 3539 3396 3560 3351 3951 3621 3481 3390 3441 3578 3049 3271 3657 3547 3581 3333 
3721 3602 3103 3181 3667 3591 3669 3466 3668 3460 3724 3523 3105 3737 2999 3428 3132 3655 3292 3412 3697 3643 3644 3500 3659 3763 3495 3812 3697 3615 3799 3346 3651 3323 3536 3427 3652 3778 3436 3665 3524 3240 3465 3669 3571 3666 3351 3587 3749 3526 3208 3481 3437 3611 3671 3550 3603 3638 3558 3622 3456 3517 3223 3462 3215 3523 3508 3551 3549 3420 3529 3521 3841 3924 3563 3683 3487 3532 3616 3422 3441 3610 3619 3550 3799 3735 4011 3652 3384 3579 3501 3934 3649 3581 3670 3450 3494 3495 3465 3412 3576 3545 3370 3374 3239 3091 3388 3657 3394 3517 3725 3684 3597 3595 3587 3513 3976 3687 3381 3472 3615 3566 2992 3251 3724 3576 3513 3268 
3334 3347 2887 3100 3497 3455 3431 3193 3521 3529 3367 3255 2938 3391 2865 3192 2929 3390 2917 3102 3508 3431 3288 3486 3484 3617 3188 3485 3321 3230 3450 3303 3261 3148 3455 3255 3479 3379 3177 3245 3224 3040 3291 3356 3310 3558 3054 3340 3480 3204 2895 3220 3206 3301 3289 3186 3347 3382 3456 3296 3186 3222 2923 3241 2973 3280 3287 3201 3353 3182 3224 3344 3634 3500 3437 3346 3240 3219 3535 3290 3114 3415 3292 3219 3672 3272 3724 3436 3177 3381 3314 3523 3416 3258 3197 3103 3204 3416 3455 2997 3317 3213 3128 2985 2912 2985 3163 3352 3220 3140 3348 3273 3284 3275 3300 3279 3721 3412 3141 3142 3187 3525 2969 2988 3568 3293 3283 2968 
3221 3256 2673 2889 3193 3240 3037 2976 3136 3080 3293 3102 2900 3241 2861 3076 2730 3064 2689 3101 3419 3111 3067 3149 3186 3400 2909 3255 3262 3221 3205 2933 3119 2917 3010 2948 3131 3156 3049 3158 3118 2748 2965 3112 3127 3288 2663 3103 3378 3144 2585 2994 2928 3087 3016 3160 3184 3249 3121 3028 3101 3052 2890 2981 2868 3013 3099 3097 3136 2875 3093 3060 3354 3261 3049 3110 2953 3084 3086 3099 3019 3125 3040 3068 3142 2981 3416 3116 3144 3153 2979 3275 3197 3106 2962 2888 3116 2970 3147 2842 3051 2991 3050 2933 2830 2935 2878 3196 3087 2799 3267 3206 2999 3146 2892 3074 3414 3185 3000 3030 3071 3232 2791 2789 3154 3196 2931 2999 
3621 3651 3109 3213 3704 3631 3496 3440 3602 3542 3710 3468 3210 3662 3166 3472 3220 3516 3070 3298 3666 3480 3595 3529 3531 3808 3544 3814 3636 3554 3629 3285 3587 3308 3489 3374 3622 3633 3486 3515 3508 3206 3434 3521 3484 3770 3201 3574 3753 3329 3176 3392 3204 3364 3521 3358 3510 3612 3485 3521 3573 3347 3048 3504 3313 3542 3407 3439 3607 3269 3503 3440 3698 3691 3519 3603 3204 3514 3581 3368 3495 3633 3512 3446 3674 3653 4036 3598 3352 3457 3305 3843 3472 3442 3500 3431 3326 3400 3476 3342 3548 3464 3354 3278 2991 3168 3349 3539 3412 3386 3704 3640 3482 3511 3328 3471 3886 3605 3377 3366 3450 3686 3015 3174 3823 3450 3610 3271 
3325 3064 2886 2950 3539 3310 3094 3115 3296 3313 3333 3096 2822 3349 2894 3127 3033 3424 2947 3112 3445 3210 3227 3141 3431 3503 3265 3456 3433 3235 3360 3029 3358 3010 3364 2973 3333 3192 3360 3181 3179 3042 3308 3521 3259 3379 2947 3264 3274 3091 2818 3022 3238 3110 3267 3219 3161 3369 3193 3032 3239 3206 3020 3066 3029 3184 3221 3039 3262 3043 3266 3206 3380 3444 3126 3453 3040 3063 3292 3262 3011 3223 3257 3087 3389 3234 3624 3390 3092 3272 3120 3470 3152 3298 3243 3169 3136 3153 3252 2964 3317 3238 3015 3181 2910 2954 3124 3396 3269 3198 3513 3174 3347 3180 3174 3091 3648 3442 3180 3153 3186 3493 2883 3106 3344 3333 3285 3028 
3423 3390 3092 2957 3515 3513 3262 3267 3382 3397 3531 3073 3042 3502 2941 3315 3016 3365 3015 3061 3415 3419 3422 3307 3542 3599 3259 3508 3492 3351 3473 3261 3509 3188 3515 3174 3461 3401 3299 3219 3418 3205 3254 3364 3442 3477 3071 3353 3513 3209 2995 3216 3213 3169 3250 3342 3411 3439 3330 3285 3252 3309 3032 3367 3077 3333 3500 3330 3422 3154 3356 3369 3601 3432 3282 3388 3255 3133 3376 3127 3446 3348 3289 3278 3539 3385 3729 3496 3290 3396 3518 3667 3408 3336 3395 3093 3152 3305 3415 3133 3463 3299 3199 3184 3021 3132 3221 3363 3204 3293 3452 3271 3242 3171 3568 3173 3758 3318 3151 3230 3256 3556 3067 3019 3472 3428 3435 3245 
3367 3301 2687 2771 3441 3320 3092 3040 3352 3215 3451 3006 2887 3360 2965 3128 2866 3292 2831 2934 3249 3159 3307 3166 3362 3321 3038 3228 3251 3263 3178 2954 3316 2954 3201 3134 3407 3191 3054 3042 3023 2867 3285 3276 3126 3365 3078 3109 3341 3166 2749 3029 3018 3041 2960 3343 3285 3194 3273 3096 2983 3198 3040 3192 2990 3157 3220 3145 3173 2863 3062 3147 3333 3487 3090 3169 3040 3128 3358 3033 3231 3219 3070 3052 3390 3202 3476 3188 3134 3199 3133 3463 3221 3202 3223 3121 3036 3340 3144 2905 3371 3100 2947 3019 2879 2778 3070 3289 3168 3093 3294 3153 3033 3026 3145 3108 3385 3282 3334 3165 3065 3313 2821 3111 3284 3093 3119 2967 
3469 3457 3067 3086 3542 3634 3437 3287 3497 3436 3481 3272 3115 3563 3032 3388 3061 3524 3043 3201 3590 3287 3509 3455 3535 3751 3416 3600 3556 3425 3591 3203 3429 3057 3374 3409 3548 3491 3424 3437 3456 3212 3433 3469 3390 3589 3180 3387 3568 3414 2980 3121 3195 3406 3476 3269 3595 3558 3484 3322 3283 3420 3197 3304 3183 3472 3414 3414 3476 3097 3396 3363 3665 3618 3373 3497 3229 3230 3543 3279 3398 3487 3418 3297 3571 3577 3864 3616 3364 3446 3379 3667 3423 3465 3558 3255 3310 3321 3498 3103 3457 3338 3275 3241 2983 3031 3246 3478 3367 3239 3516 3498 3366 3376 3457 3325 3740 3571 3417 3264 3422 3496 3012 3113 3502 3404 3459 3136 
3198 3121 2676 2788 3264 3090 3115 2987 3022 3198 3290 2989 2748 3143 2825 3089 2800 3176 2822 2916 3347 3153 3118 2985 3171 3247 3007 3189 3106 3184 3063 2806 3084 2883 2977 3018 3039 3066 2925 3087 3128 2742 2936 3094 2886 3172 2903 3090 3303 3053 2690 2976 3051 2923 3028 2990 3115 3116 3126 2973 2957 3085 2882 2916 2939 3180 2963 3013 3124 2821 2815 3135 3242 3245 3101 3105 3017 2944 3176 2830 3100 3041 2996 2966 3225 2950 3307 3123 3043 2948 2963 3398 3017 3002 3116 2916 2966 3035 3028 2788 3110 3057 2871 2912 2756 2718 2995 3119 3051 2926 3196 3093 3058 2912 3021 2989 3354 3016 3016 2914 2996 3158 2656 2873 3106 3093 3155 2979 
3352 3221 2771 2876 3295 3295 3233 3090 3206 3212 3357 3172 2874 3302 2838 3153 2815 3145 2940 3008 3372 3163 3160 3227 3289 3414 3050 3256 3278 3123 3253 2931 3180 3041 3059 3105 3168 3280 3187 3171 3188 2945 3104 3116 3039 3391 2908 3177 3319 3176 2617 3042 3077 3013 3206 3130 3188 3223 3272 3081 3007 3262 2767 3172 2835 3054 3050 3188 3137 2997 3128 3259 3388 3420 3048 3257 3171 3131 3260 3106 3066 3323 3221 3086 3271 3231 3523 3246 3165 3261 3097 3429 3160 3123 3220 3131 3148 3133 3141 2982 3269 2999 3070 2969 2813 2752 3151 3343 3159 3033 3148 3297 3066 3097 3107 3219 3407 3359 3166 2978 3031 3363 2773 2922 3298 2993 3090 2930 
3098 3074 2828 2796 3394 3136 3113 2955 3171 3220 3205 2964 3003 3304 2712 3042 2851 3183 2798 2892 3236 3175 3056 3139 3331 3491 3154 3308 3224 3115 3204 2904 3128 3048 2954 3193 3310 3192 3136 3074 3211 2820 3085 3172 3047 3151 2817 3105 3226 3072 2708 3089 3241 3071 3107 3057 3331 3314 3206 2999 2942 3107 2651 2995 3013 3184 3253 3127 3233 2925 3015 3145 3362 3281 3119 3205 2992 2982 3332 2998 3184 3222 3124 2917 3351 3177 3641 3265 3049 3154 3027 3287 3198 3055 3137 2905 2936 3058 3147 2785 3158 2894 2980 3043 2822 2796 3054 3140 3067 3008 3173 3134 3136 3052 3080 3155 3414 3098 3005 3011 3035 3159 2674 2888 3248 3272 3103 2818 
2976 3110 2605 2645 3204 3043 2786 2938 3203 3033 3259 2980 2622 3122 2693 2957 2830 3121 2647 2771 2884 3065 3115 2933 2947 3188 2956 3153 3105 3045 3054 2888 2997 2783 3007 2817 3114 3047 3014 3147 2928 2724 2919 3048 2937 3248 2804 2962 3231 2974 2610 2982 2916 2879 2912 2962 3132 3035 2903 2868 2881 3032 2684 3032 2863 2930 2909 2915 3048 2875 3111 2998 3069 3073 2971 3115 3009 2857 3055 2893 2985 3032 2941 2883 3176 3066 3361 3120 2840 3090 2993 2981 3167 2932 2907 2822 2812 2962 3079 2783 3226 2947 2871 2918 2639 2613 2897 3022 2931 2906 3196 2998 2950 2928 2964 2982 3414 2977 2895 2819 3012 3152 2511 2750 3139 3090 2884 2792 
3077 3069 2869 2717 3217 3228 2969 3022 3001 3113 3248 2884 2738 3120 2919 2928 2803 2982 2565 2948 3198 3060 3169 2976 2998 3249 2867 3176 3159 3128 3171 2787 3138 2827 2962 2958 3148 3023 3003 3051 3033 2694 2912 3028 2870 3191 2707 2943 3117 2914 2664 2999 2933 3085 3077 3058 2978 3117 2946 2988 2991 3052 2670 2815 2734 3049 2960 2941 2982 2860 2911 3111 3262 3185 2931 3110 3001 2782 2903 2831 2931 2990 3043 2700 3057 3217 3287 3115 3017 3020 2899 3288 2972 3037 3027 2838 2932 2907 2936 2831 3067 2990 2869 2978 2598 2833 2898 3168 2865 2851 3204 3018 3077 3103 2988 2864 3368 3039 2883 2915 2980 3187 2680 2704 3185 3100 3053 2987 
3443 3441 2997 2958 3512 3473 3276 3026 3512 3399 3402 3062 2893 3388 3065 3160 2933 3219 2867 3163 3586 3336 3309 3283 3391 3689 3262 3468 3351 3556 3362 3167 3469 2997 3249 3253 3361 3231 3253 3189 3272 2941 3175 3365 3309 3482 3222 3354 3340 3233 2927 3219 3139 3227 3364 3230 3374 3515 3116 3275 3018 3261 3098 3166 3103 3296 3262 3301 3429 3122 3346 3319 3573 3509 3216 3324 3169 3116 3389 3178 3326 3145 3377 3167 3282 3378 3742 3443 3176 3260 3127 3551 3307 3340 3389 3260 3232 3300 3315 3019 3503 3155 3130 3157 3070 3015 3118 3407 3330 3109 3423 3499 3262 3189 3385 3177 3701 3394 3291 3334 3427 3493 2648 2997 3572 3353 3212 3154 
3499 3437 3219 2932 3673 3593 3539 3396 3587 3398 3565 3233 3047 3577 3225 3426 3041 3531 3047 3352 3573 3454 3608 3446 3587 3699 3444 3642 3594 3563 3686 3381 3524 3217 3478 3286 3511 3508 3385 3499 3400 3075 3422 3539 3541 3483 3130 3472 3582 3284 3076 3344 3321 3403 3312 3415 3506 3622 3366 3309 3219 3486 3217 3369 3266 3319 3510 3431 3565 3239 3410 3442 3623 3633 3343 3489 3370 3251 3471 3306 3381 3376 3359 3131 3540 3586 3916 3536 3222 3516 3362 3628 3621 3546 3538 3095 3355 3284 3626 3217 3581 3269 3259 3298 3072 3068 3240 3314 3316 3328 3479 3525 3376 3357 3512 3455 3825 3498 3282 3400 3622 3555 2876 3234 3636 3570 3350 3243 
3210 3068 2767 2734 3335 3135 2912 3007 3036 3023 3131 2892 2905 3146 2784 2849 2695 3153 2718 2872 3318 3027 3079 3066 3155 3371 2983 3205 3244 3067 3163 2855 3099 2840 2944 2917 3136 3020 3107 3011 3001 2748 2979 3040 2952 3108 2848 3052 3229 3108 2613 2990 2952 2886 3119 3009 3149 3093 3088 3035 2914 2929 2797 2838 2751 2985 2971 3095 3032 2880 2978 2910 3183 3115 3020 2981 2955 2897 3008 3008 2983 3066 3030 2971 3042 3092 3379 3167 2971 3032 2943 3223 3049 2971 3003 2915 2963 2939 2999 2917 3038 2875 2887 3016 2828 2837 2928 3116 2983 2932 3177 3113 3020 2998 2924 2997 3334 3085 3026 2895 2963 3149 2584 2803 3097 3022 2969 2968 
3546 3351 2890 3021 3437 3480 3347 3102 3393 3316 3332 3154 3003 3513 2873 3047 2933 3181 2972 3017 3462 3298 3322 3156 3385 3495 3210 3447 3379 3293 3309 3012 3312 2956 3208 3262 3220 3445 3127 3072 3227 2940 3130 3270 3265 3421 3044 3241 3403 3131 2938 3256 3185 3295 3189 3113 3174 3418 3312 3329 2964 3170 2957 3101 3020 3269 3238 3140 3387 3166 3175 3209 3398 3517 3240 3305 3250 3052 3416 3311 3169 3303 3302 3162 3371 3419 3610 3433 3113 3332 3389 3578 3218 3302 3364 3145 3014 3179 3278 3062 3334 3214 3080 3114 2937 3076 3198 3343 3192 3210 3280 3312 3217 3095 3369 3274 3575 3491 3175 3248 3237 3321 2761 2877 3605 3282 3445 3235 
3147 2967 2782 2784 3216 3249 2984 2950 3105 3150 3129 3042 2837 3262 2703 2876 2717 3167 2797 2894 3263 3011 3185 3057 3076 3304 3014 3083 3106 3176 3068 2905 3105 2691 3176 2989 3108 3094 2930 3036 2997 2750 2948 3229 3070 3187 2749 3144 3302 2981 2646 3063 2931 3136 2974 3029 3178 3131 3075 3047 3050 2978 2766 3075 2771 3147 2972 2993 3087 2812 3035 2982 3106 3194 2977 3097 2964 3109 3267 3007 2993 3213 3113 2931 3388 3118 3354 3364 3015 3123 3077 3363 3111 2987 3018 2953 2899 3055 3093 2866 3147 2931 2891 2854 2657 2770 2889 3179 2884 2969 3201 3167 3041 3010 3054 2938 3347 3169 3017 2961 3007 3207 2772 2661 3220 3078 3122 2897 
3210 3178 2801 2929 3352 3316 3114 3175 3250 3285 3218 3166 2821 3252 2858 2967 2765 3238 2953 2970 3278 3203 3164 3140 3210 3495 3069 3353 3214 3318 3321 3035 3356 3016 3229 3051 3295 3222 3248 3152 3173 2980 3216 3316 3150 3408 3086 3249 3344 3270 2701 3211 3061 3201 3128 3208 3269 3243 3249 3095 3011 3032 2921 3075 2888 3260 3101 3080 3218 3001 3256 3133 3402 3330 3112 3254 2927 3145 3299 3114 3220 3257 3212 3165 3220 3213 3520 3429 3184 3304 3178 3418 3155 3090 3078 3106 3131 3080 3139 2948 3405 3085 3018 3020 2958 2734 3117 3259 3064 3183 3361 3191 3255 3004 3188 3116 3476 3187 3066 3132 3118 3328 2795 2937 3209 3265 3176 2960 
3619 3228 3125 3071 3616 3432 3293 3212 3530 3466 3565 3415 3132 3429 3090 3210 3263 3550 3081 3100 3600 3329 3418 3307 3407 3840 3479 3590 3586 3285 3698 3235 3377 3024 3515 3430 3544 3417 3306 3376 3514 2934 3417 3417 3222 3539 3245 3409 3495 3263 2993 3297 3437 3357 3408 3230 3436 3551 3432 3314 3230 3496 3029 3447 3109 3411 3396 3296 3435 3123 3331 3308 3569 3552 3328 3511 3319 3239 3522 3383 3327 3505 3528 3392 3515 3543 3883 3572 3256 3320 3307 3627 3407 3512 3507 3298 3199 3418 3359 3144 3412 3333 3257 3273 2866 3182 3344 3440 3336 3325 3390 3495 3504 3389 3372 3287 3863 3379 3222 3277 3301 3398 2989 3075 3503 3390 3460 3270 
3308 3347 2730 2944 3296 3581 3183 3315 3372 3394 3454 3247 2860 3358 2869 3430 2957 3333 2912 3200 3404 3238 3239 3331 3204 3579 3203 3504 3344 3326 3373 3123 3254 3057 3285 3208 3408 3362 3182 3191 3250 2910 3167 3391 3288 3481 2971 3261 3519 3101 2840 3208 3083 3227 3127 3222 3417 3245 3266 3332 3173 3238 2842 3271 3060 3196 3157 3176 3380 2973 3122 3309 3452 3548 3312 3273 3190 3087 3404 3237 3259 3332 3219 3073 3485 3263 3610 3347 3008 3193 3366 3563 3346 3238 3252 3088 3187 3285 3213 3037 3335 3238 3143 2994 2843 2931 3059 3191 3282 3163 3410 3361 3159 3267 3261 3174 3535 3213 3110 3227 3288 3291 2994 2897 3410 3226 3372 3059 
Exiting @ tick 8926906500 because exiting with last active thread context
